MODEL 1
REMARK VINA RESULT:      -6.4      0.000      0.000
REMARK  Name = 
REMARK  5 active torsions:
REMARK  status: ('A' for Active; 'I' for Inactive)
REMARK    1  A    between atoms: C_1  and  O_2
REMARK    2  A    between atoms: O_2  and  C_3
REMARK    3  A    between atoms: C_9  and  S_10
REMARK    4  A    between atoms: S_10  and  N_13
REMARK    5  A    between atoms: N_17  and  C_18
REMARK                            x       y       z     vdW  Elec       q    Type
REMARK                         _______ _______ _______ _____ _____    ______ ____
ROOT
ATOM      1  S   UNL     1      64.444  44.764 556.065  0.00  0.00    +0.000 S 
ATOM      2  O   UNL     1      65.648  43.960 556.004  0.00  0.00    +0.000 OA
ATOM      3  O   UNL     1      63.402  44.604 555.069  0.00  0.00    +0.000 OA
ENDROOT
BRANCH   1  10
ATOM      4  C   UNL     1      63.026  43.291 557.946  0.00  0.00    +0.000 A 
ATOM      5  C   UNL     1      62.498  43.107 559.229  0.00  0.00    +0.000 A 
ATOM      6  C   UNL     1      62.606  44.118 560.181  0.00  0.00    +0.000 A 
ATOM      7  F   UNL     1      62.095  43.925 561.404  0.00  0.00    +0.000 F 
ATOM      8  C   UNL     1      63.228  45.325 559.886  0.00  0.00    +0.000 A 
ATOM      9  C   UNL     1      63.775  45.519 558.619  0.00  0.00    +0.000 A 
ATOM     10  C   UNL     1      63.686  44.499 557.659  0.00  0.00    +0.000 A 
BRANCH   4  12
ATOM     11  C   UNL     1      61.884  41.407 557.044  0.00  0.00    +0.000 C 
ATOM     12  O   UNL     1      62.944  42.356 556.949  0.00  0.00    +0.000 OA
ENDBRANCH   4  12
ENDBRANCH   1  10
BRANCH   1  13
ATOM     13  N   UNL     1      64.884  46.400 556.099  0.00  0.00    +0.000 N 
ATOM     14  C   UNL     1      65.589  46.894 555.018  0.00  0.00    +0.000 A 
ATOM     15  C   UNL     1      65.098  47.240 553.747  0.00  0.00    +0.000 A 
ATOM     16  C   UNL     1      66.197  47.712 553.065  0.00  0.00    +0.000 A 
ATOM     17  N   UNL     1      67.254  47.588 553.926  0.00  0.00    +0.000 N 
ATOM     18  N   UNL     1      66.886  47.152 555.145  0.00  0.00    +0.000 NA
ATOM     19  H   UNL     1      65.402  46.544 556.967  0.00  0.00    +0.000 HD
BRANCH  17  20
ATOM     20  C   UNL     1      68.655  47.826 553.605  0.00  0.00    +0.000 C 
ATOM     21  C   UNL     1      69.243  48.972 554.434  0.00  0.00    +0.000 C 
ATOM     22  C   UNL     1      68.826  50.277 553.776  0.00  0.00    +0.000 C 
ATOM     23  S   UNL     1      69.015  49.976 552.001  0.00  0.00    +0.000 S 
ATOM     24  C   UNL     1      68.926  48.158 552.133  0.00  0.00    +0.000 C 
ENDBRANCH  17  20
ENDBRANCH   1  13
TORSDOF 4
ENDMDL
MODEL 2
REMARK VINA RESULT:      -5.9      2.364      2.972
REMARK  Name = 
REMARK  5 active torsions:
REMARK  status: ('A' for Active; 'I' for Inactive)
REMARK    1  A    between atoms: C_1  and  O_2
REMARK    2  A    between atoms: O_2  and  C_3
REMARK    3  A    between atoms: C_9  and  S_10
REMARK    4  A    between atoms: S_10  and  N_13
REMARK    5  A    between atoms: N_17  and  C_18
REMARK                            x       y       z     vdW  Elec       q    Type
REMARK                         _______ _______ _______ _____ _____    ______ ____
ROOT
ATOM      1  S   UNL     1      64.766  44.946 556.259  0.00  0.00    +0.000 S 
ATOM      2  O   UNL     1      65.258  46.306 556.324  0.00  0.00    +0.000 OA
ATOM      3  O   UNL     1      65.681  43.842 556.041  0.00  0.00    +0.000 OA
ENDROOT
BRANCH   1  10
ATOM      4  C   UNL     1      63.074  43.465 557.893  0.00  0.00    +0.000 A 
ATOM      5  C   UNL     1      62.455  43.210 559.122  0.00  0.00    +0.000 A 
ATOM      6  C   UNL     1      62.631  44.087 560.189  0.00  0.00    +0.000 A 
ATOM      7  F   UNL     1      62.031  43.826 561.358  0.00  0.00    +0.000 F 
ATOM      8  C   UNL     1      63.409  45.231 560.064  0.00  0.00    +0.000 A 
ATOM      9  C   UNL     1      64.047  45.493 558.853  0.00  0.00    +0.000 A 
ATOM     10  C   UNL     1      63.891  44.604 557.778  0.00  0.00    +0.000 A 
BRANCH   4  12
ATOM     11  C   UNL     1      62.115  41.508 556.935  0.00  0.00    +0.000 C 
ATOM     12  O   UNL     1      62.937  42.664 556.791  0.00  0.00    +0.000 OA
ENDBRANCH   4  12
ENDBRANCH   1  10
BRANCH   1  13
ATOM     13  N   UNL     1      63.556  44.861 555.075  0.00  0.00    +0.000 N 
ATOM     14  C   UNL     1      63.954  44.916 553.752  0.00  0.00    +0.000 A 
ATOM     15  C   UNL     1      64.532  43.896 552.976  0.00  0.00    +0.000 A 
ATOM     16  C   UNL     1      64.695  44.456 551.730  0.00  0.00    +0.000 A 
ATOM     17  N   UNL     1      64.256  45.748 551.839  0.00  0.00    +0.000 N 
ATOM     18  N   UNL     1      63.739  46.023 553.050  0.00  0.00    +0.000 NA
ATOM     19  H   UNL     1      62.890  45.605 555.286  0.00  0.00    +0.000 HD
BRANCH  17  20
ATOM     20  C   UNL     1      64.364  46.780 550.815  0.00  0.00    +0.000 C 
ATOM     21  C   UNL     1      65.783  46.870 550.245  0.00  0.00    +0.000 C 
ATOM     22  C   UNL     1      66.618  47.688 551.217  0.00  0.00    +0.000 C 
ATOM     23  S   UNL     1      65.533  49.045 551.725  0.00  0.00    +0.000 S 
ATOM     24  C   UNL     1      63.983  48.188 551.285  0.00  0.00    +0.000 C 
ENDBRANCH  17  20
ENDBRANCH   1  13
TORSDOF 4
ENDMDL
MODEL 3
REMARK VINA RESULT:      -5.6      3.795      7.497
REMARK  Name = 
REMARK  5 active torsions:
REMARK  status: ('A' for Active; 'I' for Inactive)
REMARK    1  A    between atoms: C_1  and  O_2
REMARK    2  A    between atoms: O_2  and  C_3
REMARK    3  A    between atoms: C_9  and  S_10
REMARK    4  A    between atoms: S_10  and  N_13
REMARK    5  A    between atoms: N_17  and  C_18
REMARK                            x       y       z     vdW  Elec       q    Type
REMARK                         _______ _______ _______ _____ _____    ______ ____
ROOT
ATOM      1  S   UNL     1      66.323  44.218 552.961  0.00  0.00    +0.000 S 
ATOM      2  O   UNL     1      66.008  43.697 551.647  0.00  0.00    +0.000 OA
ATOM      3  O   UNL     1      67.249  43.515 553.828  0.00  0.00    +0.000 OA
ENDROOT
BRANCH   1  10
ATOM      4  C   UNL     1      66.169  46.873 552.155  0.00  0.00    +0.000 A 
ATOM      5  C   UNL     1      66.687  48.171 552.071  0.00  0.00    +0.000 A 
ATOM      6  C   UNL     1      67.964  48.447 552.553  0.00  0.00    +0.000 A 
ATOM      7  F   UNL     1      68.443  49.695 552.464  0.00  0.00    +0.000 F 
ATOM      8  C   UNL     1      68.754  47.453 553.117  0.00  0.00    +0.000 A 
ATOM      9  C   UNL     1      68.250  46.159 553.224  0.00  0.00    +0.000 A 
ATOM     10  C   UNL     1      66.956  45.876 552.758  0.00  0.00    +0.000 A 
BRANCH   4  12
ATOM     11  C   UNL     1      64.662  46.783 550.315  0.00  0.00    +0.000 C 
ATOM     12  O   UNL     1      64.932  46.515 551.689  0.00  0.00    +0.000 OA
ENDBRANCH   4  12
ENDBRANCH   1  10
BRANCH   1  13
ATOM     13  N   UNL     1      64.879  44.444 553.817  0.00  0.00    +0.000 N 
ATOM     14  C   UNL     1      64.975  44.882 555.125  0.00  0.00    +0.000 A 
ATOM     15  C   UNL     1      65.241  46.183 555.587  0.00  0.00    +0.000 A 
ATOM     16  C   UNL     1      65.185  46.083 556.959  0.00  0.00    +0.000 A 
ATOM     17  N   UNL     1      64.937  44.765 557.229  0.00  0.00    +0.000 N 
ATOM     18  N   UNL     1      64.740  44.032 556.118  0.00  0.00    +0.000 NA
ATOM     19  H   UNL     1      64.368  43.562 553.766  0.00  0.00    +0.000 HD
BRANCH  17  20
ATOM     20  C   UNL     1      64.933  44.145 558.549  0.00  0.00    +0.000 C 
ATOM     21  C   UNL     1      63.951  42.971 558.623  0.00  0.00    +0.000 C 
ATOM     22  C   UNL     1      62.562  43.547 558.844  0.00  0.00    +0.000 C 
ATOM     23  S   UNL     1      62.802  44.877 560.048  0.00  0.00    +0.000 S 
ATOM     24  C   UNL     1      64.580  45.094 559.699  0.00  0.00    +0.000 C 
ENDBRANCH  17  20
ENDBRANCH   1  13
TORSDOF 4
ENDMDL
MODEL 4
REMARK VINA RESULT:      -5.6      2.539      3.300
REMARK  Name = 
REMARK  5 active torsions:
REMARK  status: ('A' for Active; 'I' for Inactive)
REMARK    1  A    between atoms: C_1  and  O_2
REMARK    2  A    between atoms: O_2  and  C_3
REMARK    3  A    between atoms: C_9  and  S_10
REMARK    4  A    between atoms: S_10  and  N_13
REMARK    5  A    between atoms: N_17  and  C_18
REMARK                            x       y       z     vdW  Elec       q    Type
REMARK                         _______ _______ _______ _____ _____    ______ ____
ROOT
ATOM      1  S   UNL     1      66.293  46.355 553.921  0.00  0.00    +0.000 S 
ATOM      2  O   UNL     1      67.509  45.580 553.785  0.00  0.00    +0.000 OA
ATOM      3  O   UNL     1      65.442  46.595 552.772  0.00  0.00    +0.000 OA
ENDROOT
BRANCH   1  10
ATOM      4  C   UNL     1      64.503  44.445 554.852  0.00  0.00    +0.000 A 
ATOM      5  C   UNL     1      63.770  43.834 555.876  0.00  0.00    +0.000 A 
ATOM      6  C   UNL     1      63.796  44.360 557.165  0.00  0.00    +0.000 A 
ATOM      7  F   UNL     1      63.088  43.761 558.132  0.00  0.00    +0.000 F 
ATOM      8  C   UNL     1      64.536  45.497 557.466  0.00  0.00    +0.000 A 
ATOM      9  C   UNL     1      65.285  46.109 556.465  0.00  0.00    +0.000 A 
ATOM     10  C   UNL     1      65.279  45.574 555.166  0.00  0.00    +0.000 A 
BRANCH   4  12
ATOM     11  C   UNL     1      63.297  43.457 553.053  0.00  0.00    +0.000 C 
ATOM     12  O   UNL     1      64.515  44.002 553.556  0.00  0.00    +0.000 OA
ENDBRANCH   4  12
ENDBRANCH   1  10
BRANCH   1  13
ATOM     13  N   UNL     1      66.679  47.856 554.605  0.00  0.00    +0.000 N 
ATOM     14  C   UNL     1      67.594  48.647 553.935  0.00  0.00    +0.000 A 
ATOM     15  C   UNL     1      67.386  49.429 552.784  0.00  0.00    +0.000 A 
ATOM     16  C   UNL     1      68.597  50.042 552.557  0.00  0.00    +0.000 A 
ATOM     17  N   UNL     1      69.442  49.576 553.528  0.00  0.00    +0.000 N 
ATOM     18  N   UNL     1      68.825  48.775 554.416  0.00  0.00    +0.000 NA
ATOM     19  H   UNL     1      66.990  47.670 555.560  0.00  0.00    +0.000 HD
BRANCH  17  20
ATOM     20  C   UNL     1      70.874  49.831 553.614  0.00  0.00    +0.000 C 
ATOM     21  C   UNL     1      71.226  50.695 554.829  0.00  0.00    +0.000 C 
ATOM     22  C   UNL     1      70.948  52.143 554.461  0.00  0.00    +0.000 C 
ATOM     23  S   UNL     1      71.554  52.308 552.763  0.00  0.00    +0.000 S 
ATOM     24  C   UNL     1      71.475  50.524 552.387  0.00  0.00    +0.000 C 
ENDBRANCH  17  20
ENDBRANCH   1  13
TORSDOF 4
ENDMDL
MODEL 5
REMARK VINA RESULT:      -5.6      3.357      4.225
REMARK  Name = 
REMARK  5 active torsions:
REMARK  status: ('A' for Active; 'I' for Inactive)
REMARK    1  A    between atoms: C_1  and  O_2
REMARK    2  A    between atoms: O_2  and  C_3
REMARK    3  A    between atoms: C_9  and  S_10
REMARK    4  A    between atoms: S_10  and  N_13
REMARK    5  A    between atoms: N_17  and  C_18
REMARK                            x       y       z     vdW  Elec       q    Type
REMARK                         _______ _______ _______ _____ _____    ______ ____
ROOT
ATOM      1  S   UNL     1      66.425  45.834 552.300  0.00  0.00    +0.000 S 
ATOM      2  O   UNL     1      66.429  44.918 551.178  0.00  0.00    +0.000 OA
ATOM      3  O   UNL     1      66.010  47.212 552.123  0.00  0.00    +0.000 OA
ENDROOT
BRANCH   1  10
ATOM      4  C   UNL     1      64.025  44.883 553.330  0.00  0.00    +0.000 A 
ATOM      5  C   UNL     1      63.266  44.283 554.342  0.00  0.00    +0.000 A 
ATOM      6  C   UNL     1      63.852  43.977 555.567  0.00  0.00    +0.000 A 
ATOM      7  F   UNL     1      63.110  43.403 556.524  0.00  0.00    +0.000 F 
ATOM      8  C   UNL     1      65.188  44.261 555.820  0.00  0.00    +0.000 A 
ATOM      9  C   UNL     1      65.964  44.842 554.820  0.00  0.00    +0.000 A 
ATOM     10  C   UNL     1      65.386  45.138 553.575  0.00  0.00    +0.000 A 
BRANCH   4  12
ATOM     11  C   UNL     1      62.961  44.185 551.319  0.00  0.00    +0.000 C 
ATOM     12  O   UNL     1      63.521  45.234 552.106  0.00  0.00    +0.000 OA
ENDBRANCH   4  12
ENDBRANCH   1  10
BRANCH   1  13
ATOM     13  N   UNL     1      67.967  45.841 553.002  0.00  0.00    +0.000 N 
ATOM     14  C   UNL     1      68.501  47.066 553.357  0.00  0.00    +0.000 A 
ATOM     15  C   UNL     1      68.187  47.858 554.475  0.00  0.00    +0.000 A 
ATOM     16  C   UNL     1      69.025  48.945 554.378  0.00  0.00    +0.000 A 
ATOM     17  N   UNL     1      69.739  48.766 553.225  0.00  0.00    +0.000 N 
ATOM     18  N   UNL     1      69.477  47.590 552.626  0.00  0.00    +0.000 NA
ATOM     19  H   UNL     1      68.584  45.349 552.354  0.00  0.00    +0.000 HD
BRANCH  17  20
ATOM     20  C   UNL     1      70.653  49.729 552.623  0.00  0.00    +0.000 C 
ATOM     21  C   UNL     1      70.017  51.118 552.501  0.00  0.00    +0.000 C 
ATOM     22  C   UNL     1      69.138  51.114 551.261  0.00  0.00    +0.000 C 
ATOM     23  S   UNL     1      70.102  50.217 550.019  0.00  0.00    +0.000 S 
ATOM     24  C   UNL     1      71.157  49.347 551.227  0.00  0.00    +0.000 C 
ENDBRANCH  17  20
ENDBRANCH   1  13
TORSDOF 4
ENDMDL
MODEL 6
REMARK VINA RESULT:      -5.5      4.309      7.499
REMARK  Name = 
REMARK  5 active torsions:
REMARK  status: ('A' for Active; 'I' for Inactive)
REMARK    1  A    between atoms: C_1  and  O_2
REMARK    2  A    between atoms: O_2  and  C_3
REMARK    3  A    between atoms: C_9  and  S_10
REMARK    4  A    between atoms: S_10  and  N_13
REMARK    5  A    between atoms: N_17  and  C_18
REMARK                            x       y       z     vdW  Elec       q    Type
REMARK                         _______ _______ _______ _____ _____    ______ ____
ROOT
ATOM      1  S   UNL     1      65.975  46.870 553.002  0.00  0.00    +0.000 S 
ATOM      2  O   UNL     1      67.238  47.350 552.480  0.00  0.00    +0.000 OA
ATOM      3  O   UNL     1      65.341  47.537 554.123  0.00  0.00    +0.000 OA
ENDROOT
BRANCH   1  10
ATOM      4  C   UNL     1      64.929  45.966 550.591  0.00  0.00    +0.000 A 
ATOM      5  C   UNL     1      63.945  45.961 549.596  0.00  0.00    +0.000 A 
ATOM      6  C   UNL     1      62.877  46.852 549.664  0.00  0.00    +0.000 A 
ATOM      7  F   UNL     1      61.944  46.833 548.702  0.00  0.00    +0.000 F 
ATOM      8  C   UNL     1      62.762  47.764 550.706  0.00  0.00    +0.000 A 
ATOM      9  C   UNL     1      63.722  47.772 551.715  0.00  0.00    +0.000 A 
ATOM     10  C   UNL     1      64.792  46.865 551.664  0.00  0.00    +0.000 A 
BRANCH   4  12
ATOM     11  C   UNL     1      66.965  45.326 549.537  0.00  0.00    +0.000 C 
ATOM     12  O   UNL     1      66.019  45.138 550.588  0.00  0.00    +0.000 OA
ENDBRANCH   4  12
ENDBRANCH   1  10
BRANCH   1  13
ATOM     13  N   UNL     1      66.137  45.230 553.396  0.00  0.00    +0.000 N 
ATOM     14  C   UNL     1      65.233  44.698 554.296  0.00  0.00    +0.000 A 
ATOM     15  C   UNL     1      63.897  44.323 554.066  0.00  0.00    +0.000 A 
ATOM     16  C   UNL     1      63.465  43.818 555.271  0.00  0.00    +0.000 A 
ATOM     17  N   UNL     1      64.519  43.953 556.134  0.00  0.00    +0.000 N 
ATOM     18  N   UNL     1      65.626  44.426 555.535  0.00  0.00    +0.000 NA
ATOM     19  H   UNL     1      67.095  45.103 553.724  0.00  0.00    +0.000 HD
BRANCH  17  20
ATOM     20  C   UNL     1      64.493  43.688 557.567  0.00  0.00    +0.000 C 
ATOM     21  C   UNL     1      63.127  44.010 558.181  0.00  0.00    +0.000 C 
ATOM     22  C   UNL     1      63.069  45.510 558.414  0.00  0.00    +0.000 C 
ATOM     23  S   UNL     1      64.707  45.938 559.055  0.00  0.00    +0.000 S 
ATOM     24  C   UNL     1      65.538  44.461 558.378  0.00  0.00    +0.000 C 
ENDBRANCH  17  20
ENDBRANCH   1  13
TORSDOF 4
ENDMDL
MODEL 7
REMARK VINA RESULT:      -5.4     18.367     19.402
REMARK  Name = 
REMARK  5 active torsions:
REMARK  status: ('A' for Active; 'I' for Inactive)
REMARK    1  A    between atoms: C_1  and  O_2
REMARK    2  A    between atoms: O_2  and  C_3
REMARK    3  A    between atoms: C_9  and  S_10
REMARK    4  A    between atoms: S_10  and  N_13
REMARK    5  A    between atoms: N_17  and  C_18
REMARK                            x       y       z     vdW  Elec       q    Type
REMARK                         _______ _______ _______ _____ _____    ______ ____
ROOT
ATOM      1  S   UNL     1      79.080  42.520 568.487  0.00  0.00    +0.000 S 
ATOM      2  O   UNL     1      77.675  42.656 568.811  0.00  0.00    +0.000 OA
ATOM      3  O   UNL     1      80.085  42.581 569.531  0.00  0.00    +0.000 OA
ENDROOT
BRANCH   1  10
ATOM      4  C   UNL     1      80.495  40.687 566.950  0.00  0.00    +0.000 A 
ATOM      5  C   UNL     1      80.645  39.431 566.352  0.00  0.00    +0.000 A 
ATOM      6  C   UNL     1      79.615  38.496 566.422  0.00  0.00    +0.000 A 
ATOM      7  F   UNL     1      79.775  37.299 565.843  0.00  0.00    +0.000 F 
ATOM      8  C   UNL     1      78.422  38.783 567.074  0.00  0.00    +0.000 A 
ATOM      9  C   UNL     1      78.262  40.022 567.690  0.00  0.00    +0.000 A 
ATOM     10  C   UNL     1      79.302  40.963 567.641  0.00  0.00    +0.000 A 
BRANCH   4  12
ATOM     11  C   UNL     1      82.627  41.450 567.686  0.00  0.00    +0.000 C 
ATOM     12  O   UNL     1      81.451  41.668 566.910  0.00  0.00    +0.000 OA
ENDBRANCH   4  12
ENDBRANCH   1  10
BRANCH   1  13
ATOM     13  N   UNL     1      79.480  43.673 567.312  0.00  0.00    +0.000 N 
ATOM     14  C   UNL     1      79.953  44.895 567.752  0.00  0.00    +0.000 A 
ATOM     15  C   UNL     1      81.236  45.207 568.234  0.00  0.00    +0.000 A 
ATOM     16  C   UNL     1      81.191  46.558 568.496  0.00  0.00    +0.000 A 
ATOM     17  N   UNL     1      79.914  46.954 568.203  0.00  0.00    +0.000 N 
ATOM     18  N   UNL     1      79.166  45.964 567.684  0.00  0.00    +0.000 NA
ATOM     19  H   UNL     1      78.652  43.793 566.727  0.00  0.00    +0.000 HD
BRANCH  17  20
ATOM     20  C   UNL     1      79.346  48.272 568.456  0.00  0.00    +0.000 C 
ATOM     21  C   UNL     1      78.551  48.790 567.252  0.00  0.00    +0.000 C 
ATOM     22  C   UNL     1      79.546  49.364 566.257  0.00  0.00    +0.000 C 
ATOM     23  S   UNL     1      80.743  50.265 567.272  0.00  0.00    +0.000 S 
ATOM     24  C   UNL     1      80.372  49.354 568.809  0.00  0.00    +0.000 C 
ENDBRANCH  17  20
ENDBRANCH   1  13
TORSDOF 4
ENDMDL
MODEL 8
REMARK VINA RESULT:      -5.3     18.666     20.431
REMARK  Name = 
REMARK  5 active torsions:
REMARK  status: ('A' for Active; 'I' for Inactive)
REMARK    1  A    between atoms: C_1  and  O_2
REMARK    2  A    between atoms: O_2  and  C_3
REMARK    3  A    between atoms: C_9  and  S_10
REMARK    4  A    between atoms: S_10  and  N_13
REMARK    5  A    between atoms: N_17  and  C_18
REMARK                            x       y       z     vdW  Elec       q    Type
REMARK                         _______ _______ _______ _____ _____    ______ ____
ROOT
ATOM      1  S   UNL     1      80.125  45.420 567.705  0.00  0.00    +0.000 S 
ATOM      2  O   UNL     1      79.166  45.141 566.656  0.00  0.00    +0.000 OA
ATOM      3  O   UNL     1      81.548  45.386 567.429  0.00  0.00    +0.000 OA
ENDROOT
BRANCH   1  10
ATOM      4  C   UNL     1      80.412  47.503 569.522  0.00  0.00    +0.000 A 
ATOM      5  C   UNL     1      80.136  48.801 569.968  0.00  0.00    +0.000 A 
ATOM      6  C   UNL     1      79.214  49.593 569.287  0.00  0.00    +0.000 A 
ATOM      7  F   UNL     1      78.963  50.832 569.728  0.00  0.00    +0.000 F 
ATOM      8  C   UNL     1      78.546  49.120 568.164  0.00  0.00    +0.000 A 
ATOM      9  C   UNL     1      78.820  47.838 567.696  0.00  0.00    +0.000 A 
ATOM     10  C   UNL     1      79.761  47.039 568.365  0.00  0.00    +0.000 A 
BRANCH   4  12
ATOM     11  C   UNL     1      82.581  47.175 570.446  0.00  0.00    +0.000 C 
ATOM     12  O   UNL     1      81.288  46.655 570.145  0.00  0.00    +0.000 OA
ENDBRANCH   4  12
ENDBRANCH   1  10
BRANCH   1  13
ATOM     13  N   UNL     1      79.822  44.381 569.008  0.00  0.00    +0.000 N 
ATOM     14  C   UNL     1      79.630  43.042 568.725  0.00  0.00    +0.000 A 
ATOM     15  C   UNL     1      80.599  42.073 568.412  0.00  0.00    +0.000 A 
ATOM     16  C   UNL     1      79.888  40.904 568.261  0.00  0.00    +0.000 A 
ATOM     17  N   UNL     1      78.574  41.239 568.446  0.00  0.00    +0.000 N 
ATOM     18  N   UNL     1      78.408  42.527 568.796  0.00  0.00    +0.000 NA
ATOM     19  H   UNL     1      79.020  44.766 569.508  0.00  0.00    +0.000 HD
BRANCH  17  20
ATOM     20  C   UNL     1      77.428  40.361 568.244  0.00  0.00    +0.000 C 
ATOM     21  C   UNL     1      76.324  40.620 569.274  0.00  0.00    +0.000 C 
ATOM     22  C   UNL     1      76.707  39.894 570.553  0.00  0.00    +0.000 C 
ATOM     23  S   UNL     1      77.360  38.300 569.996  0.00  0.00    +0.000 S 
ATOM     24  C   UNL     1      77.751  38.864 568.305  0.00  0.00    +0.000 C 
ENDBRANCH  17  20
ENDBRANCH   1  13
TORSDOF 4
ENDMDL
MODEL 9
REMARK VINA RESULT:      -5.2      4.565      5.317
REMARK  Name = 
REMARK  5 active torsions:
REMARK  status: ('A' for Active; 'I' for Inactive)
REMARK    1  A    between atoms: C_1  and  O_2
REMARK    2  A    between atoms: O_2  and  C_3
REMARK    3  A    between atoms: C_9  and  S_10
REMARK    4  A    between atoms: S_10  and  N_13
REMARK    5  A    between atoms: N_17  and  C_18
REMARK                            x       y       z     vdW  Elec       q    Type
REMARK                         _______ _______ _______ _____ _____    ______ ____
ROOT
ATOM      1  S   UNL     1      66.914  46.398 550.736  0.00  0.00    +0.000 S 
ATOM      2  O   UNL     1      67.049  45.454 549.646  0.00  0.00    +0.000 OA
ATOM      3  O   UNL     1      66.913  47.825 550.478  0.00  0.00    +0.000 OA
ENDROOT
BRANCH   1  10
ATOM      4  C   UNL     1      65.320  44.915 552.462  0.00  0.00    +0.000 A 
ATOM      5  C   UNL     1      64.128  44.697 553.163  0.00  0.00    +0.000 A 
ATOM      6  C   UNL     1      63.043  45.551 552.981  0.00  0.00    +0.000 A 
ATOM      7  F   UNL     1      61.911  45.327 553.661  0.00  0.00    +0.000 F 
ATOM      8  C   UNL     1      63.110  46.627 552.105  0.00  0.00    +0.000 A 
ATOM      9  C   UNL     1      64.294  46.870 551.411  0.00  0.00    +0.000 A 
ATOM     10  C   UNL     1      65.398  46.024 551.602  0.00  0.00    +0.000 A 
BRANCH   4  12
ATOM     11  C   UNL     1      66.619  43.452 553.819  0.00  0.00    +0.000 C 
ATOM     12  O   UNL     1      66.423  44.111 552.570  0.00  0.00    +0.000 OA
ENDBRANCH   4  12
ENDBRANCH   1  10
BRANCH   1  13
ATOM     13  N   UNL     1      68.118  46.077 551.884  0.00  0.00    +0.000 N 
ATOM     14  C   UNL     1      68.376  47.054 552.828  0.00  0.00    +0.000 A 
ATOM     15  C   UNL     1      67.624  47.375 553.972  0.00  0.00    +0.000 A 
ATOM     16  C   UNL     1      68.333  48.384 554.583  0.00  0.00    +0.000 A 
ATOM     17  N   UNL     1      69.411  48.628 553.775  0.00  0.00    +0.000 N 
ATOM     18  N   UNL     1      69.485  47.778 552.734  0.00  0.00    +0.000 NA
ATOM     19  H   UNL     1      68.964  45.844 551.362  0.00  0.00    +0.000 HD
BRANCH  17  20
ATOM     20  C   UNL     1      70.374  49.710 553.932  0.00  0.00    +0.000 C 
ATOM     21  C   UNL     1      69.751  50.931 554.618  0.00  0.00    +0.000 C 
ATOM     22  C   UNL     1      68.985  51.710 553.563  0.00  0.00    +0.000 C 
ATOM     23  S   UNL     1      70.053  51.678 552.102  0.00  0.00    +0.000 S 
ATOM     24  C   UNL     1      70.998  50.206 552.623  0.00  0.00    +0.000 C 
ENDBRANCH  17  20
ENDBRANCH   1  13
TORSDOF 4
ENDMDL
MODEL 10
REMARK VINA RESULT:      -5.2      4.283      5.404
REMARK  Name = 
REMARK  5 active torsions:
REMARK  status: ('A' for Active; 'I' for Inactive)
REMARK    1  A    between atoms: C_1  and  O_2
REMARK    2  A    between atoms: O_2  and  C_3
REMARK    3  A    between atoms: C_9  and  S_10
REMARK    4  A    between atoms: S_10  and  N_13
REMARK    5  A    between atoms: N_17  and  C_18
REMARK                            x       y       z     vdW  Elec       q    Type
REMARK                         _______ _______ _______ _____ _____    ______ ____
ROOT
ATOM      1  S   UNL     1      66.105  47.845 551.715  0.00  0.00    +0.000 S 
ATOM      2  O   UNL     1      65.008  47.701 550.781  0.00  0.00    +0.000 OA
ATOM      3  O   UNL     1      66.328  49.104 552.399  0.00  0.00    +0.000 OA
ENDROOT
BRANCH   1  10
ATOM      4  C   UNL     1      66.132  45.237 552.674  0.00  0.00    +0.000 A 
ATOM      5  C   UNL     1      66.033  44.300 553.709  0.00  0.00    +0.000 A 
ATOM      6  C   UNL     1      65.704  44.713 554.997  0.00  0.00    +0.000 A 
ATOM      7  F   UNL     1      65.614  43.802 555.975  0.00  0.00    +0.000 F 
ATOM      8  C   UNL     1      65.462  46.050 555.287  0.00  0.00    +0.000 A 
ATOM      9  C   UNL     1      65.573  46.999 554.274  0.00  0.00    +0.000 A 
ATOM     10  C   UNL     1      65.921  46.594 552.976  0.00  0.00    +0.000 A 
BRANCH   4  12
ATOM     11  C   UNL     1      65.465  44.133 550.673  0.00  0.00    +0.000 C 
ATOM     12  O   UNL     1      66.430  44.910 551.378  0.00  0.00    +0.000 OA
ENDBRANCH   4  12
ENDBRANCH   1  10
BRANCH   1  13
ATOM     13  N   UNL     1      67.545  47.415 550.934  0.00  0.00    +0.000 N 
ATOM     14  C   UNL     1      68.727  47.899 551.463  0.00  0.00    +0.000 A 
ATOM     15  C   UNL     1      69.420  47.445 552.598  0.00  0.00    +0.000 A 
ATOM     16  C   UNL     1      70.545  48.236 552.659  0.00  0.00    +0.000 A 
ATOM     17  N   UNL     1      70.443  49.115 551.615  0.00  0.00    +0.000 N 
ATOM     18  N   UNL     1      69.371  48.877 550.836  0.00  0.00    +0.000 NA
ATOM     19  H   UNL     1      67.442  47.695 549.958  0.00  0.00    +0.000 HD
BRANCH  17  20
ATOM     20  C   UNL     1      71.328  50.243 551.352  0.00  0.00    +0.000 C 
ATOM     21  C   UNL     1      71.595  51.062 552.619  0.00  0.00    +0.000 C 
ATOM     22  C   UNL     1      70.408  51.988 552.828  0.00  0.00    +0.000 C 
ATOM     23  S   UNL     1      70.004  52.597 551.171  0.00  0.00    +0.000 S 
ATOM     24  C   UNL     1      70.818  51.221 550.289  0.00  0.00    +0.000 C 
ENDBRANCH  17  20
ENDBRANCH   1  13
TORSDOF 4
ENDMDL
