MODEL 1
REMARK VINA RESULT:      -6.1      0.000      0.000
REMARK  Name = 
REMARK  8 active torsions:
REMARK  status: ('A' for Active; 'I' for Inactive)
REMARK    1  A    between atoms: C_1  and  O_2
REMARK    2  A    between atoms: O_2  and  C_3
REMARK    3  A    between atoms: C_9  and  S_10
REMARK    4  A    between atoms: S_10  and  N_13
REMARK    5  A    between atoms: N_13  and  C_14
REMARK    6  A    between atoms: C_14  and  C_15
REMARK    7  A    between atoms: C_15  and  O_16
REMARK    8  A    between atoms: O_16  and  C_17
REMARK                            x       y       z     vdW  Elec       q    Type
REMARK                         _______ _______ _______ _____ _____    ______ ____
ROOT
ATOM      1  N   UNL     1      63.481  42.639 553.045  0.00  0.00    +0.000 NA
ATOM      2  H   UNL     1      63.405  42.297 554.002  0.00  0.00    +0.000 HD
ENDROOT
BRANCH   1   3
ATOM      3  S   UNL     1      64.482  43.989 552.973  0.00  0.00    +0.000 S 
ATOM      4  O   UNL     1      63.802  44.969 552.154  0.00  0.00    +0.000 OA
ATOM      5  O   UNL     1      65.807  43.524 552.625  0.00  0.00    +0.000 OA
BRANCH   3  12
ATOM      6  C   UNL     1      65.341  45.664 555.007  0.00  0.00    +0.000 A 
ATOM      7  C   UNL     1      65.377  46.059 556.349  0.00  0.00    +0.000 A 
ATOM      8  C   UNL     1      64.623  45.374 557.299  0.00  0.00    +0.000 A 
ATOM      9  F   UNL     1      64.676  45.760 558.580  0.00  0.00    +0.000 F 
ATOM     10  C   UNL     1      63.816  44.302 556.943  0.00  0.00    +0.000 A 
ATOM     11  C   UNL     1      63.759  43.905 555.610  0.00  0.00    +0.000 A 
ATOM     12  C   UNL     1      64.517  44.587 554.644  0.00  0.00    +0.000 A 
BRANCH   6  14
ATOM     13  C   UNL     1      65.638  47.664 553.768  0.00  0.00    +0.000 C 
ATOM     14  O   UNL     1      66.027  46.317 554.020  0.00  0.00    +0.000 OA
ENDBRANCH   6  14
ENDBRANCH   3  12
ENDBRANCH   1   3
BRANCH   1  15
ATOM     15  C   UNL     1      62.299  42.602 552.174  0.00  0.00    +0.000 C 
BRANCH  15  16
ATOM     16  C   UNL     1      61.718  41.187 552.124  0.00  0.00    +0.000 C 
BRANCH  16  17
ATOM     17  O   UNL     1      61.594  40.701 553.461  0.00  0.00    +0.000 OA
BRANCH  17  18
ATOM     18  C   UNL     1      62.054  39.439 553.734  0.00  0.00    +0.000 A 
ATOM     19  C   UNL     1      62.648  38.594 552.792  0.00  0.00    +0.000 A 
ATOM     20  C   UNL     1      63.089  37.328 553.175  0.00  0.00    +0.000 A 
ATOM     21  F   UNL     1      63.660  36.531 552.263  0.00  0.00    +0.000 F 
ATOM     22  C   UNL     1      62.948  36.876 554.481  0.00  0.00    +0.000 A 
ATOM     23  C   UNL     1      62.351  37.705 555.428  0.00  0.00    +0.000 A 
ATOM     24  C   UNL     1      61.907  38.980 555.055  0.00  0.00    +0.000 A 
ATOM     25 BR   UNL     1      61.103  40.061 556.396  0.00  0.00    +0.000 Br
ENDBRANCH  17  18
ENDBRANCH  16  17
ENDBRANCH  15  16
ENDBRANCH   1  15
TORSDOF 7
ENDMDL
MODEL 2
REMARK VINA RESULT:      -6.0      1.955      2.288
REMARK  Name = 
REMARK  8 active torsions:
REMARK  status: ('A' for Active; 'I' for Inactive)
REMARK    1  A    between atoms: C_1  and  O_2
REMARK    2  A    between atoms: O_2  and  C_3
REMARK    3  A    between atoms: C_9  and  S_10
REMARK    4  A    between atoms: S_10  and  N_13
REMARK    5  A    between atoms: N_13  and  C_14
REMARK    6  A    between atoms: C_14  and  C_15
REMARK    7  A    between atoms: C_15  and  O_16
REMARK    8  A    between atoms: O_16  and  C_17
REMARK                            x       y       z     vdW  Elec       q    Type
REMARK                         _______ _______ _______ _____ _____    ______ ____
ROOT
ATOM      1  N   UNL     1      63.633  42.473 552.875  0.00  0.00    +0.000 NA
ATOM      2  H   UNL     1      63.778  41.987 553.758  0.00  0.00    +0.000 HD
ENDROOT
BRANCH   1   3
ATOM      3  S   UNL     1      64.537  43.890 552.820  0.00  0.00    +0.000 S 
ATOM      4  O   UNL     1      63.791  44.830 552.011  0.00  0.00    +0.000 OA
ATOM      5  O   UNL     1      65.892  43.524 552.469  0.00  0.00    +0.000 OA
BRANCH   3  12
ATOM      6  C   UNL     1      65.366  45.522 554.901  0.00  0.00    +0.000 A 
ATOM      7  C   UNL     1      65.364  45.902 556.248  0.00  0.00    +0.000 A 
ATOM      8  C   UNL     1      64.560  45.227 557.163  0.00  0.00    +0.000 A 
ATOM      9  F   UNL     1      64.578  45.599 558.450  0.00  0.00    +0.000 F 
ATOM     10  C   UNL     1      63.739  44.180 556.768  0.00  0.00    +0.000 A 
ATOM     11  C   UNL     1      63.720  43.798 555.429  0.00  0.00    +0.000 A 
ATOM     12  C   UNL     1      64.528  44.470 554.498  0.00  0.00    +0.000 A 
BRANCH   6  14
ATOM     13  C   UNL     1      67.194  46.953 554.417  0.00  0.00    +0.000 C 
ATOM     14  O   UNL     1      66.103  46.168 553.946  0.00  0.00    +0.000 OA
ENDBRANCH   6  14
ENDBRANCH   3  12
ENDBRANCH   1   3
BRANCH   1  15
ATOM     15  C   UNL     1      62.295  42.478 552.269  0.00  0.00    +0.000 C 
BRANCH  15  16
ATOM     16  C   UNL     1      61.689  41.073 552.305  0.00  0.00    +0.000 C 
BRANCH  16  17
ATOM     17  O   UNL     1      62.543  40.231 553.077  0.00  0.00    +0.000 OA
BRANCH  17  18
ATOM     18  C   UNL     1      62.060  39.728 554.257  0.00  0.00    +0.000 A 
ATOM     19  C   UNL     1      61.457  40.499 555.255  0.00  0.00    +0.000 A 
ATOM     20  C   UNL     1      60.991  39.888 556.418  0.00  0.00    +0.000 A 
ATOM     21  F   UNL     1      60.411  40.639 557.364  0.00  0.00    +0.000 F 
ATOM     22  C   UNL     1      61.115  38.519 556.618  0.00  0.00    +0.000 A 
ATOM     23  C   UNL     1      61.721  37.741 555.635  0.00  0.00    +0.000 A 
ATOM     24  C   UNL     1      62.189  38.343 554.461  0.00  0.00    +0.000 A 
ATOM     25 BR   UNL     1      63.004  37.222 553.159  0.00  0.00    +0.000 Br
ENDBRANCH  17  18
ENDBRANCH  16  17
ENDBRANCH  15  16
ENDBRANCH   1  15
TORSDOF 7
ENDMDL
MODEL 3
REMARK VINA RESULT:      -5.6      2.587      7.495
REMARK  Name = 
REMARK  8 active torsions:
REMARK  status: ('A' for Active; 'I' for Inactive)
REMARK    1  A    between atoms: C_1  and  O_2
REMARK    2  A    between atoms: O_2  and  C_3
REMARK    3  A    between atoms: C_9  and  S_10
REMARK    4  A    between atoms: S_10  and  N_13
REMARK    5  A    between atoms: N_13  and  C_14
REMARK    6  A    between atoms: C_14  and  C_15
REMARK    7  A    between atoms: C_15  and  O_16
REMARK    8  A    between atoms: O_16  and  C_17
REMARK                            x       y       z     vdW  Elec       q    Type
REMARK                         _______ _______ _______ _____ _____    ______ ____
ROOT
ATOM      1  N   UNL     1      62.700  41.212 552.848  0.00  0.00    +0.000 NA
ATOM      2  H   UNL     1      63.606  40.748 552.790  0.00  0.00    +0.000 HD
ENDROOT
BRANCH   1   3
ATOM      3  S   UNL     1      61.506  40.279 552.117  0.00  0.00    +0.000 S 
ATOM      4  O   UNL     1      61.712  40.382 550.689  0.00  0.00    +0.000 OA
ATOM      5  O   UNL     1      60.241  40.656 552.712  0.00  0.00    +0.000 OA
BRANCH   3  12
ATOM      6  C   UNL     1      62.256  38.333 553.941  0.00  0.00    +0.000 A 
ATOM      7  C   UNL     1      62.607  37.018 554.270  0.00  0.00    +0.000 A 
ATOM      8  C   UNL     1      62.612  36.030 553.289  0.00  0.00    +0.000 A 
ATOM      9  F   UNL     1      62.959  34.780 553.619  0.00  0.00    +0.000 F 
ATOM     10  C   UNL     1      62.261  36.315 551.976  0.00  0.00    +0.000 A 
ATOM     11  C   UNL     1      61.898  37.615 551.635  0.00  0.00    +0.000 A 
ATOM     12  C   UNL     1      61.891  38.620 552.617  0.00  0.00    +0.000 A 
BRANCH   6  14
ATOM     13  C   UNL     1      61.672  38.992 556.143  0.00  0.00    +0.000 C 
ATOM     14  O   UNL     1      62.194  39.340 554.865  0.00  0.00    +0.000 OA
ENDBRANCH   6  14
ENDBRANCH   3  12
ENDBRANCH   1   3
BRANCH   1  15
ATOM     15  C   UNL     1      62.631  42.671 552.701  0.00  0.00    +0.000 C 
BRANCH  15  16
ATOM     16  C   UNL     1      63.885  43.326 553.283  0.00  0.00    +0.000 C 
BRANCH  16  17
ATOM     17  O   UNL     1      63.483  44.399 554.133  0.00  0.00    +0.000 OA
BRANCH  17  18
ATOM     18  C   UNL     1      63.823  44.334 555.460  0.00  0.00    +0.000 A 
ATOM     19  C   UNL     1      63.228  43.473 556.387  0.00  0.00    +0.000 A 
ATOM     20  C   UNL     1      63.653  43.481 557.714  0.00  0.00    +0.000 A 
ATOM     21  F   UNL     1      63.077  42.648 558.590  0.00  0.00    +0.000 F 
ATOM     22  C   UNL     1      64.660  44.334 558.148  0.00  0.00    +0.000 A 
ATOM     23  C   UNL     1      65.256  45.202 557.237  0.00  0.00    +0.000 A 
ATOM     24  C   UNL     1      64.839  45.201 555.900  0.00  0.00    +0.000 A 
ATOM     25 BR   UNL     1      65.696  46.409 554.709  0.00  0.00    +0.000 Br
ENDBRANCH  17  18
ENDBRANCH  16  17
ENDBRANCH  15  16
ENDBRANCH   1  15
TORSDOF 7
ENDMDL
MODEL 4
REMARK VINA RESULT:      -5.5      2.984      7.461
REMARK  Name = 
REMARK  8 active torsions:
REMARK  status: ('A' for Active; 'I' for Inactive)
REMARK    1  A    between atoms: C_1  and  O_2
REMARK    2  A    between atoms: O_2  and  C_3
REMARK    3  A    between atoms: C_9  and  S_10
REMARK    4  A    between atoms: S_10  and  N_13
REMARK    5  A    between atoms: N_13  and  C_14
REMARK    6  A    between atoms: C_14  and  C_15
REMARK    7  A    between atoms: C_15  and  O_16
REMARK    8  A    between atoms: O_16  and  C_17
REMARK                            x       y       z     vdW  Elec       q    Type
REMARK                         _______ _______ _______ _____ _____    ______ ____
ROOT
ATOM      1  N   UNL     1      62.790  41.036 552.924  0.00  0.00    +0.000 NA
ATOM      2  H   UNL     1      63.809  41.050 552.937  0.00  0.00    +0.000 HD
ENDROOT
BRANCH   1   3
ATOM      3  S   UNL     1      62.219  39.477 552.654  0.00  0.00    +0.000 S 
ATOM      4  O   UNL     1      63.357  38.680 552.251  0.00  0.00    +0.000 OA
ATOM      5  O   UNL     1      61.053  39.587 551.803  0.00  0.00    +0.000 OA
BRANCH   3  12
ATOM      6  C   UNL     1      61.250  37.612 554.459  0.00  0.00    +0.000 A 
ATOM      7  C   UNL     1      60.791  37.246 555.730  0.00  0.00    +0.000 A 
ATOM      8  C   UNL     1      60.761  38.183 556.759  0.00  0.00    +0.000 A 
ATOM      9  F   UNL     1      60.311  37.818 557.966  0.00  0.00    +0.000 F 
ATOM     10  C   UNL     1      61.191  39.488 556.559  0.00  0.00    +0.000 A 
ATOM     11  C   UNL     1      61.662  39.865 555.304  0.00  0.00    +0.000 A 
ATOM     12  C   UNL     1      61.695  38.928 554.259  0.00  0.00    +0.000 A 
BRANCH   6  14
ATOM     13  C   UNL     1      62.040  35.517 553.678  0.00  0.00    +0.000 C 
ATOM     14  O   UNL     1      61.340  36.730 553.418  0.00  0.00    +0.000 OA
ENDBRANCH   6  14
ENDBRANCH   3  12
ENDBRANCH   1   3
BRANCH   1  15
ATOM     15  C   UNL     1      62.065  42.158 552.314  0.00  0.00    +0.000 C 
BRANCH  15  16
ATOM     16  C   UNL     1      63.019  43.322 552.036  0.00  0.00    +0.000 C 
BRANCH  16  17
ATOM     17  O   UNL     1      62.679  44.403 552.904  0.00  0.00    +0.000 OA
BRANCH  17  18
ATOM     18  C   UNL     1      63.588  44.771 553.862  0.00  0.00    +0.000 A 
ATOM     19  C   UNL     1      63.795  44.082 555.060  0.00  0.00    +0.000 A 
ATOM     20  C   UNL     1      64.751  44.537 555.967  0.00  0.00    +0.000 A 
ATOM     21  F   UNL     1      64.943  43.864 557.109  0.00  0.00    +0.000 F 
ATOM     22  C   UNL     1      65.508  45.674 555.712  0.00  0.00    +0.000 A 
ATOM     23  C   UNL     1      65.306  46.375 554.526  0.00  0.00    +0.000 A 
ATOM     24  C   UNL     1      64.351  45.924 553.607  0.00  0.00    +0.000 A 
ATOM     25 BR   UNL     1      64.128  46.926 552.006  0.00  0.00    +0.000 Br
ENDBRANCH  17  18
ENDBRANCH  16  17
ENDBRANCH  15  16
ENDBRANCH   1  15
TORSDOF 7
ENDMDL
MODEL 5
REMARK VINA RESULT:      -5.4      2.529      3.311
REMARK  Name = 
REMARK  8 active torsions:
REMARK  status: ('A' for Active; 'I' for Inactive)
REMARK    1  A    between atoms: C_1  and  O_2
REMARK    2  A    between atoms: O_2  and  C_3
REMARK    3  A    between atoms: C_9  and  S_10
REMARK    4  A    between atoms: S_10  and  N_13
REMARK    5  A    between atoms: N_13  and  C_14
REMARK    6  A    between atoms: C_14  and  C_15
REMARK    7  A    between atoms: C_15  and  O_16
REMARK    8  A    between atoms: O_16  and  C_17
REMARK                            x       y       z     vdW  Elec       q    Type
REMARK                         _______ _______ _______ _____ _____    ______ ____
ROOT
ATOM      1  N   UNL     1      63.141  42.261 552.808  0.00  0.00    +0.000 NA
ATOM      2  H   UNL     1      63.535  42.279 553.748  0.00  0.00    +0.000 HD
ENDROOT
BRANCH   1   3
ATOM      3  S   UNL     1      63.121  43.806 552.143  0.00  0.00    +0.000 S 
ATOM      4  O   UNL     1      61.891  44.432 552.578  0.00  0.00    +0.000 OA
ATOM      5  O   UNL     1      63.425  43.673 550.734  0.00  0.00    +0.000 OA
BRANCH   3  12
ATOM      6  C   UNL     1      64.625  44.600 554.330  0.00  0.00    +0.000 A 
ATOM      7  C   UNL     1      65.678  45.318 554.910  0.00  0.00    +0.000 A 
ATOM      8  C   UNL     1      66.539  46.063 554.110  0.00  0.00    +0.000 A 
ATOM      9  F   UNL     1      67.536  46.751 554.683  0.00  0.00    +0.000 F 
ATOM     10  C   UNL     1      66.388  46.105 552.731  0.00  0.00    +0.000 A 
ATOM     11  C   UNL     1      65.353  45.387 552.137  0.00  0.00    +0.000 A 
ATOM     12  C   UNL     1      64.477  44.633 552.935  0.00  0.00    +0.000 A 
BRANCH   6  14
ATOM     13  C   UNL     1      63.719  44.071 556.457  0.00  0.00    +0.000 C 
ATOM     14  O   UNL     1      63.768  43.819 555.056  0.00  0.00    +0.000 OA
ENDBRANCH   6  14
ENDBRANCH   3  12
ENDBRANCH   1   3
BRANCH   1  15
ATOM     15  C   UNL     1      62.016  41.364 552.517  0.00  0.00    +0.000 C 
BRANCH  15  16
ATOM     16  C   UNL     1      61.773  40.416 553.694  0.00  0.00    +0.000 C 
BRANCH  16  17
ATOM     17  O   UNL     1      62.583  39.255 553.514  0.00  0.00    +0.000 OA
BRANCH  17  18
ATOM     18  C   UNL     1      61.983  38.027 553.614  0.00  0.00    +0.000 A 
ATOM     19  C   UNL     1      61.371  37.539 554.773  0.00  0.00    +0.000 A 
ATOM     20  C   UNL     1      60.782  36.276 554.768  0.00  0.00    +0.000 A 
ATOM     21  F   UNL     1      60.196  35.823 555.884  0.00  0.00    +0.000 F 
ATOM     22  C   UNL     1      60.790  35.477 553.632  0.00  0.00    +0.000 A 
ATOM     23  C   UNL     1      61.402  35.947 552.473  0.00  0.00    +0.000 A 
ATOM     24  C   UNL     1      61.994  37.216 552.466  0.00  0.00    +0.000 A 
ATOM     25 BR   UNL     1      62.811  37.798 550.850  0.00  0.00    +0.000 Br
ENDBRANCH  17  18
ENDBRANCH  16  17
ENDBRANCH  15  16
ENDBRANCH   1  15
TORSDOF 7
ENDMDL
MODEL 6
REMARK VINA RESULT:      -5.2      4.996      9.508
REMARK  Name = 
REMARK  8 active torsions:
REMARK  status: ('A' for Active; 'I' for Inactive)
REMARK    1  A    between atoms: C_1  and  O_2
REMARK    2  A    between atoms: O_2  and  C_3
REMARK    3  A    between atoms: C_9  and  S_10
REMARK    4  A    between atoms: S_10  and  N_13
REMARK    5  A    between atoms: N_13  and  C_14
REMARK    6  A    between atoms: C_14  and  C_15
REMARK    7  A    between atoms: C_15  and  O_16
REMARK    8  A    between atoms: O_16  and  C_17
REMARK                            x       y       z     vdW  Elec       q    Type
REMARK                         _______ _______ _______ _____ _____    ______ ____
ROOT
ATOM      1  N   UNL     1      67.029  45.786 553.235  0.00  0.00    +0.000 NA
ATOM      2  H   UNL     1      66.540  44.903 553.097  0.00  0.00    +0.000 HD
ENDROOT
BRANCH   1   3
ATOM      3  S   UNL     1      66.153  46.798 554.255  0.00  0.00    +0.000 S 
ATOM      4  O   UNL     1      65.234  47.540 553.419  0.00  0.00    +0.000 OA
ATOM      5  O   UNL     1      67.105  47.486 555.101  0.00  0.00    +0.000 OA
BRANCH   3  12
ATOM      6  C   UNL     1      64.456  44.649 554.682  0.00  0.00    +0.000 A 
ATOM      7  C   UNL     1      63.683  43.832 555.516  0.00  0.00    +0.000 A 
ATOM      8  C   UNL     1      63.655  44.064 556.888  0.00  0.00    +0.000 A 
ATOM      9  F   UNL     1      62.903  43.278 557.670  0.00  0.00    +0.000 F 
ATOM     10  C   UNL     1      64.392  45.091 557.463  0.00  0.00    +0.000 A 
ATOM     11  C   UNL     1      65.175  45.904 556.649  0.00  0.00    +0.000 A 
ATOM     12  C   UNL     1      65.210  45.680 555.262  0.00  0.00    +0.000 A 
BRANCH   6  14
ATOM     13  C   UNL     1      63.673  43.487 552.769  0.00  0.00    +0.000 C 
ATOM     14  O   UNL     1      64.557  44.451 553.332  0.00  0.00    +0.000 OA
ENDBRANCH   6  14
ENDBRANCH   3  12
ENDBRANCH   1   3
BRANCH   1  15
ATOM     15  C   UNL     1      67.751  46.391 552.109  0.00  0.00    +0.000 C 
BRANCH  15  16
ATOM     16  C   UNL     1      69.066  47.009 552.589  0.00  0.00    +0.000 C 
BRANCH  16  17
ATOM     17  O   UNL     1      69.124  48.360 552.135  0.00  0.00    +0.000 OA
BRANCH  17  18
ATOM     18  C   UNL     1      69.784  49.275 552.913  0.00  0.00    +0.000 A 
ATOM     19  C   UNL     1      69.486  49.532 554.255  0.00  0.00    +0.000 A 
ATOM     20  C   UNL     1      70.224  50.480 554.961  0.00  0.00    +0.000 A 
ATOM     21  F   UNL     1      69.930  50.712 556.247  0.00  0.00    +0.000 F 
ATOM     22  C   UNL     1      71.256  51.189 554.361  0.00  0.00    +0.000 A 
ATOM     23  C   UNL     1      71.559  50.949 553.023  0.00  0.00    +0.000 A 
ATOM     24  C   UNL     1      70.827  49.996 552.305  0.00  0.00    +0.000 A 
ATOM     25 BR   UNL     1      71.294  49.716 550.483  0.00  0.00    +0.000 Br
ENDBRANCH  17  18
ENDBRANCH  16  17
ENDBRANCH  15  16
ENDBRANCH   1  15
TORSDOF 7
ENDMDL
MODEL 7
REMARK VINA RESULT:      -5.1      4.839      7.680
REMARK  Name = 
REMARK  8 active torsions:
REMARK  status: ('A' for Active; 'I' for Inactive)
REMARK    1  A    between atoms: C_1  and  O_2
REMARK    2  A    between atoms: O_2  and  C_3
REMARK    3  A    between atoms: C_9  and  S_10
REMARK    4  A    between atoms: S_10  and  N_13
REMARK    5  A    between atoms: N_13  and  C_14
REMARK    6  A    between atoms: C_14  and  C_15
REMARK    7  A    between atoms: C_15  and  O_16
REMARK    8  A    between atoms: O_16  and  C_17
REMARK                            x       y       z     vdW  Elec       q    Type
REMARK                         _______ _______ _______ _____ _____    ______ ____
ROOT
ATOM      1  N   UNL     1      64.936  45.446 552.058  0.00  0.00    +0.000 NA
ATOM      2  H   UNL     1      65.408  46.164 552.607  0.00  0.00    +0.000 HD
ENDROOT
BRANCH   1   3
ATOM      3  S   UNL     1      64.824  44.011 552.928  0.00  0.00    +0.000 S 
ATOM      4  O   UNL     1      66.099  43.340 552.793  0.00  0.00    +0.000 OA
ATOM      5  O   UNL     1      63.597  43.358 552.524  0.00  0.00    +0.000 OA
BRANCH   3  12
ATOM      6  C   UNL     1      65.522  45.495 555.162  0.00  0.00    +0.000 A 
ATOM      7  C   UNL     1      65.380  45.836 556.512  0.00  0.00    +0.000 A 
ATOM      8  C   UNL     1      64.404  45.218 557.289  0.00  0.00    +0.000 A 
ATOM      9  F   UNL     1      64.287  45.550 558.581  0.00  0.00    +0.000 F 
ATOM     10  C   UNL     1      63.547  44.268 556.750  0.00  0.00    +0.000 A 
ATOM     11  C   UNL     1      63.667  43.927 555.406  0.00  0.00    +0.000 A 
ATOM     12  C   UNL     1      64.650  44.542 554.613  0.00  0.00    +0.000 A 
BRANCH   6  14
ATOM     13  C   UNL     1      66.768  47.443 554.636  0.00  0.00    +0.000 C 
ATOM     14  O   UNL     1      66.435  46.091 554.336  0.00  0.00    +0.000 OA
ENDBRANCH   6  14
ENDBRANCH   3  12
ENDBRANCH   1   3
BRANCH   1  15
ATOM     15  C   UNL     1      65.188  45.366 550.614  0.00  0.00    +0.000 C 
BRANCH  15  16
ATOM     16  C   UNL     1      66.674  45.582 550.318  0.00  0.00    +0.000 C 
BRANCH  16  17
ATOM     17  O   UNL     1      66.870  46.950 549.961  0.00  0.00    +0.000 OA
BRANCH  17  18
ATOM     18  C   UNL     1      67.622  47.734 550.798  0.00  0.00    +0.000 A 
ATOM     19  C   UNL     1      68.850  47.353 551.345  0.00  0.00    +0.000 A 
ATOM     20  C   UNL     1      69.540  48.229 552.181  0.00  0.00    +0.000 A 
ATOM     21  F   UNL     1      70.718  47.853 552.694  0.00  0.00    +0.000 F 
ATOM     22  C   UNL     1      69.032  49.484 552.493  0.00  0.00    +0.000 A 
ATOM     23  C   UNL     1      67.805  49.873 551.961  0.00  0.00    +0.000 A 
ATOM     24  C   UNL     1      67.106  49.002 551.118  0.00  0.00    +0.000 A 
ATOM     25 BR   UNL     1      65.438  49.597 550.424  0.00  0.00    +0.000 Br
ENDBRANCH  17  18
ENDBRANCH  16  17
ENDBRANCH  15  16
ENDBRANCH   1  15
TORSDOF 7
ENDMDL
MODEL 8
REMARK VINA RESULT:      -5.1      5.385      9.511
REMARK  Name = 
REMARK  8 active torsions:
REMARK  status: ('A' for Active; 'I' for Inactive)
REMARK    1  A    between atoms: C_1  and  O_2
REMARK    2  A    between atoms: O_2  and  C_3
REMARK    3  A    between atoms: C_9  and  S_10
REMARK    4  A    between atoms: S_10  and  N_13
REMARK    5  A    between atoms: N_13  and  C_14
REMARK    6  A    between atoms: C_14  and  C_15
REMARK    7  A    between atoms: C_15  and  O_16
REMARK    8  A    between atoms: O_16  and  C_17
REMARK                            x       y       z     vdW  Elec       q    Type
REMARK                         _______ _______ _______ _____ _____    ______ ____
ROOT
ATOM      1  N   UNL     1      67.060  46.287 553.034  0.00  0.00    +0.000 NA
ATOM      2  H   UNL     1      66.861  45.288 553.061  0.00  0.00    +0.000 HD
ENDROOT
BRANCH   1   3
ATOM      3  S   UNL     1      66.188  47.099 554.221  0.00  0.00    +0.000 S 
ATOM      4  O   UNL     1      65.258  47.970 553.533  0.00  0.00    +0.000 OA
ATOM      5  O   UNL     1      67.143  47.636 555.167  0.00  0.00    +0.000 OA
BRANCH   3  12
ATOM      6  C   UNL     1      64.388  44.994 554.295  0.00  0.00    +0.000 A 
ATOM      7  C   UNL     1      63.634  44.037 554.986  0.00  0.00    +0.000 A 
ATOM      8  C   UNL     1      63.739  43.932 556.370  0.00  0.00    +0.000 A 
ATOM      9  F   UNL     1      63.004  43.016 557.015  0.00  0.00    +0.000 F 
ATOM     10  C   UNL     1      64.593  44.753 557.094  0.00  0.00    +0.000 A 
ATOM     11  C   UNL     1      65.359  45.701 556.421  0.00  0.00    +0.000 A 
ATOM     12  C   UNL     1      65.259  45.818 555.025  0.00  0.00    +0.000 A 
BRANCH   6  14
ATOM     13  C   UNL     1      64.507  43.922 552.183  0.00  0.00    +0.000 C 
ATOM     14  O   UNL     1      64.359  45.123 552.934  0.00  0.00    +0.000 OA
ENDBRANCH   6  14
ENDBRANCH   3  12
ENDBRANCH   1   3
BRANCH   1  15
ATOM     15  C   UNL     1      67.250  46.947 551.736  0.00  0.00    +0.000 C 
BRANCH  15  16
ATOM     16  C   UNL     1      68.725  47.297 551.527  0.00  0.00    +0.000 C 
BRANCH  16  17
ATOM     17  O   UNL     1      69.095  48.291 552.482  0.00  0.00    +0.000 OA
BRANCH  17  18
ATOM     18  C   UNL     1      70.144  49.118 552.179  0.00  0.00    +0.000 A 
ATOM     19  C   UNL     1      70.849  49.091 550.972  0.00  0.00    +0.000 A 
ATOM     20  C   UNL     1      71.899  49.982 550.760  0.00  0.00    +0.000 A 
ATOM     21  F   UNL     1      72.562  49.948 549.597  0.00  0.00    +0.000 F 
ATOM     22  C   UNL     1      72.273  50.905 551.728  0.00  0.00    +0.000 A 
ATOM     23  C   UNL     1      71.585  50.938 552.939  0.00  0.00    +0.000 A 
ATOM     24  C   UNL     1      70.526  50.050 553.161  0.00  0.00    +0.000 A 
ATOM     25 BR   UNL     1      69.628  50.150 554.833  0.00  0.00    +0.000 Br
ENDBRANCH  17  18
ENDBRANCH  16  17
ENDBRANCH  15  16
ENDBRANCH   1  15
TORSDOF 7
ENDMDL
MODEL 9
REMARK VINA RESULT:      -5.1      5.200      9.608
REMARK  Name = 
REMARK  8 active torsions:
REMARK  status: ('A' for Active; 'I' for Inactive)
REMARK    1  A    between atoms: C_1  and  O_2
REMARK    2  A    between atoms: O_2  and  C_3
REMARK    3  A    between atoms: C_9  and  S_10
REMARK    4  A    between atoms: S_10  and  N_13
REMARK    5  A    between atoms: N_13  and  C_14
REMARK    6  A    between atoms: C_14  and  C_15
REMARK    7  A    between atoms: C_15  and  O_16
REMARK    8  A    between atoms: O_16  and  C_17
REMARK                            x       y       z     vdW  Elec       q    Type
REMARK                         _______ _______ _______ _____ _____    ______ ____
ROOT
ATOM      1  N   UNL     1      66.863  47.332 551.707  0.00  0.00    +0.000 NA
ATOM      2  H   UNL     1      66.567  48.091 552.319  0.00  0.00    +0.000 HD
ENDROOT
BRANCH   1   3
ATOM      3  S   UNL     1      65.754  46.067 551.750  0.00  0.00    +0.000 S 
ATOM      4  O   UNL     1      66.404  44.923 551.147  0.00  0.00    +0.000 OA
ATOM      5  O   UNL     1      64.504  46.572 551.223  0.00  0.00    +0.000 OA
BRANCH   3  12
ATOM      6  C   UNL     1      64.886  44.580 553.920  0.00  0.00    +0.000 A 
ATOM      7  C   UNL     1      64.693  44.398 555.295  0.00  0.00    +0.000 A 
ATOM      8  C   UNL     1      65.128  45.366 556.195  0.00  0.00    +0.000 A 
ATOM      9  F   UNL     1      64.927  45.179 557.507  0.00  0.00    +0.000 F 
ATOM     10  C   UNL     1      65.769  46.519 555.762  0.00  0.00    +0.000 A 
ATOM     11  C   UNL     1      65.980  46.709 554.399  0.00  0.00    +0.000 A 
ATOM     12  C   UNL     1      65.543  45.740 553.481  0.00  0.00    +0.000 A 
BRANCH   6  14
ATOM     13  C   UNL     1      63.116  43.442 552.825  0.00  0.00    +0.000 C 
ATOM     14  O   UNL     1      64.516  43.650 552.987  0.00  0.00    +0.000 OA
ENDBRANCH   6  14
ENDBRANCH   3  12
ENDBRANCH   1   3
BRANCH   1  15
ATOM     15  C   UNL     1      68.290  47.003 551.609  0.00  0.00    +0.000 C 
BRANCH  15  16
ATOM     16  C   UNL     1      69.107  48.259 551.296  0.00  0.00    +0.000 C 
BRANCH  16  17
ATOM     17  O   UNL     1      70.251  48.279 552.148  0.00  0.00    +0.000 OA
BRANCH  17  18
ATOM     18  C   UNL     1      70.308  49.235 553.129  0.00  0.00    +0.000 A 
ATOM     19  C   UNL     1      69.556  49.205 554.306  0.00  0.00    +0.000 A 
ATOM     20  C   UNL     1      69.694  50.226 555.245  0.00  0.00    +0.000 A 
ATOM     21  F   UNL     1      68.971  50.181 556.371  0.00  0.00    +0.000 F 
ATOM     22  C   UNL     1      70.565  51.288 555.038  0.00  0.00    +0.000 A 
ATOM     23  C   UNL     1      71.315  51.335 553.865  0.00  0.00    +0.000 A 
ATOM     24  C   UNL     1      71.187  50.313 552.917  0.00  0.00    +0.000 A 
ATOM     25 BR   UNL     1      72.241  50.437 551.340  0.00  0.00    +0.000 Br
ENDBRANCH  17  18
ENDBRANCH  16  17
ENDBRANCH  15  16
ENDBRANCH   1  15
TORSDOF 7
ENDMDL
MODEL 10
REMARK VINA RESULT:      -5.0      5.520      9.749
REMARK  Name = 
REMARK  8 active torsions:
REMARK  status: ('A' for Active; 'I' for Inactive)
REMARK    1  A    between atoms: C_1  and  O_2
REMARK    2  A    between atoms: O_2  and  C_3
REMARK    3  A    between atoms: C_9  and  S_10
REMARK    4  A    between atoms: S_10  and  N_13
REMARK    5  A    between atoms: N_13  and  C_14
REMARK    6  A    between atoms: C_14  and  C_15
REMARK    7  A    between atoms: C_15  and  O_16
REMARK    8  A    between atoms: O_16  and  C_17
REMARK                            x       y       z     vdW  Elec       q    Type
REMARK                         _______ _______ _______ _____ _____    ______ ____
ROOT
ATOM      1  N   UNL     1      67.201  48.036 554.537  0.00  0.00    +0.000 NA
ATOM      2  H   UNL     1      66.890  48.045 555.508  0.00  0.00    +0.000 HD
ENDROOT
BRANCH   1   3
ATOM      3  S   UNL     1      66.687  46.635 553.761  0.00  0.00    +0.000 S 
ATOM      4  O   UNL     1      67.871  45.848 553.494  0.00  0.00    +0.000 OA
ATOM      5  O   UNL     1      65.806  47.037 552.685  0.00  0.00    +0.000 OA
BRANCH   3  12
ATOM      6  C   UNL     1      64.981  44.646 554.663  0.00  0.00    +0.000 A 
ATOM      7  C   UNL     1      64.191  44.053 555.654  0.00  0.00    +0.000 A 
ATOM      8  C   UNL     1      64.133  44.611 556.928  0.00  0.00    +0.000 A 
ATOM      9  F   UNL     1      63.365  44.035 557.862  0.00  0.00    +0.000 F 
ATOM     10  C   UNL     1      64.858  45.751 557.251  0.00  0.00    +0.000 A 
ATOM     11  C   UNL     1      65.659  46.346 556.279  0.00  0.00    +0.000 A 
ATOM     12  C   UNL     1      65.723  45.792 554.990  0.00  0.00    +0.000 A 
BRANCH   6  14
ATOM     13  C   UNL     1      63.903  43.932 552.675  0.00  0.00    +0.000 C 
ATOM     14  O   UNL     1      65.111  44.126 553.404  0.00  0.00    +0.000 OA
ENDBRANCH   6  14
ENDBRANCH   3  12
ENDBRANCH   1   3
BRANCH   1  15
ATOM     15  C   UNL     1      68.527  48.570 554.203  0.00  0.00    +0.000 C 
BRANCH  15  16
ATOM     16  C   UNL     1      68.440  49.491 552.984  0.00  0.00    +0.000 C 
BRANCH  16  17
ATOM     17  O   UNL     1      68.853  48.757 551.832  0.00  0.00    +0.000 OA
BRANCH  17  18
ATOM     18  C   UNL     1      69.883  49.261 551.081  0.00  0.00    +0.000 A 
ATOM     19  C   UNL     1      71.179  49.475 551.561  0.00  0.00    +0.000 A 
ATOM     20  C   UNL     1      72.158  49.986 550.711  0.00  0.00    +0.000 A 
ATOM     21  F   UNL     1      73.397  50.181 551.183  0.00  0.00    +0.000 F 
ATOM     22  C   UNL     1      71.879  50.298 549.387  0.00  0.00    +0.000 A 
ATOM     23  C   UNL     1      70.590  50.098 548.898  0.00  0.00    +0.000 A 
ATOM     24  C   UNL     1      69.599  49.581 549.742  0.00  0.00    +0.000 A 
ATOM     25 BR   UNL     1      67.862  49.330 549.010  0.00  0.00    +0.000 Br
ENDBRANCH  17  18
ENDBRANCH  16  17
ENDBRANCH  15  16
ENDBRANCH   1  15
TORSDOF 7
ENDMDL
