MODEL 1
REMARK VINA RESULT:      -6.3      0.000      0.000
REMARK  Name = 
REMARK  7 active torsions:
REMARK  status: ('A' for Active; 'I' for Inactive)
REMARK    1  A    between atoms: C_1  and  O_2
REMARK    2  A    between atoms: O_2  and  C_3
REMARK    3  A    between atoms: C_9  and  S_10
REMARK    4  A    between atoms: S_10  and  N_13
REMARK    5  A    between atoms: N_17  and  C_18
REMARK    6  A    between atoms: N_21  and  S_22
REMARK    7  A    between atoms: S_22  and  C_23
REMARK                            x       y       z     vdW  Elec       q    Type
REMARK                         _______ _______ _______ _____ _____    ______ ____
ROOT
ATOM      1  N   UNL     1      62.252  44.112 552.538  0.00  0.00    +0.000 N 
ATOM      2  C   UNL     1      61.990  42.898 551.921  0.00  0.00    +0.000 A 
ATOM      3  C   UNL     1      61.402  42.738 550.652  0.00  0.00    +0.000 A 
ATOM      4  C   UNL     1      61.263  41.379 550.494  0.00  0.00    +0.000 A 
ATOM      5  N   UNL     1      61.706  40.816 551.662  0.00  0.00    +0.000 N 
ATOM      6  N   UNL     1      62.159  41.730 552.538  0.00  0.00    +0.000 NA
ATOM      7  H   UNL     1      61.646  44.884 552.264  0.00  0.00    +0.000 HD
ENDROOT
BRANCH   5   8
ATOM      8  C   UNL     1      61.578  39.411 552.020  0.00  0.00    +0.000 C 
ATOM      9  C   UNL     1      61.018  39.239 553.431  0.00  0.00    +0.000 C 
ATOM     10  C   UNL     1      62.247  38.973 554.277  0.00  0.00    +0.000 C 
ATOM     11  N   UNL     1      63.109  38.128 553.418  0.00  0.00    +0.000 NA
ATOM     12  C   UNL     1      62.886  38.599 552.007  0.00  0.00    +0.000 C 
BRANCH  11  13
ATOM     13  S   UNL     1      63.035  36.456 553.695  0.00  0.00    +0.000 S 
ATOM     14  C   UNL     1      62.685  35.850 552.059  0.00  0.00    +0.000 C 
ATOM     15  O   UNL     1      64.359  35.995 554.055  0.00  0.00    +0.000 OA
ATOM     16  O   UNL     1      61.898  36.203 554.555  0.00  0.00    +0.000 OA
ENDBRANCH  11  13
ENDBRANCH   5   8
BRANCH   1  17
ATOM     17  S   UNL     1      63.834  44.712 552.526  0.00  0.00    +0.000 S 
ATOM     18  O   UNL     1      63.850  46.069 552.025  0.00  0.00    +0.000 OA
ATOM     19  O   UNL     1      64.679  43.695 551.929  0.00  0.00    +0.000 OA
BRANCH  17  26
ATOM     20  C   UNL     1      65.328  45.569 554.711  0.00  0.00    +0.000 A 
ATOM     21  C   UNL     1      65.582  45.631 556.085  0.00  0.00    +0.000 A 
ATOM     22  C   UNL     1      64.794  44.905 556.975  0.00  0.00    +0.000 A 
ATOM     23  F   UNL     1      65.055  44.976 558.288  0.00  0.00    +0.000 F 
ATOM     24  C   UNL     1      63.752  44.102 556.530  0.00  0.00    +0.000 A 
ATOM     25  C   UNL     1      63.479  44.034 555.167  0.00  0.00    +0.000 A 
ATOM     26  C   UNL     1      64.261  44.769 554.263  0.00  0.00    +0.000 A 
BRANCH  20  28
ATOM     27  C   UNL     1      67.412  45.707 553.556  0.00  0.00    +0.000 C 
ATOM     28  O   UNL     1      66.091  46.203 553.766  0.00  0.00    +0.000 OA
ENDBRANCH  20  28
ENDBRANCH  17  26
ENDBRANCH   1  17
TORSDOF 5
ENDMDL
MODEL 2
REMARK VINA RESULT:      -6.1      8.126     11.792
REMARK  Name = 
REMARK  7 active torsions:
REMARK  status: ('A' for Active; 'I' for Inactive)
REMARK    1  A    between atoms: C_1  and  O_2
REMARK    2  A    between atoms: O_2  and  C_3
REMARK    3  A    between atoms: C_9  and  S_10
REMARK    4  A    between atoms: S_10  and  N_13
REMARK    5  A    between atoms: N_17  and  C_18
REMARK    6  A    between atoms: N_21  and  S_22
REMARK    7  A    between atoms: S_22  and  C_23
REMARK                            x       y       z     vdW  Elec       q    Type
REMARK                         _______ _______ _______ _____ _____    ______ ____
ROOT
ATOM      1  N   UNL     1      72.058  50.927 553.427  0.00  0.00    +0.000 N 
ATOM      2  C   UNL     1      70.809  50.553 553.898  0.00  0.00    +0.000 A 
ATOM      3  C   UNL     1      70.363  50.690 555.227  0.00  0.00    +0.000 A 
ATOM      4  C   UNL     1      69.113  50.116 555.243  0.00  0.00    +0.000 A 
ATOM      5  N   UNL     1      68.906  49.627 553.979  0.00  0.00    +0.000 N 
ATOM      6  N   UNL     1      69.929  49.893 553.147  0.00  0.00    +0.000 NA
ATOM      7  H   UNL     1      72.808  50.920 554.117  0.00  0.00    +0.000 HD
ENDROOT
BRANCH   5   8
ATOM      8  C   UNL     1      67.794  48.779 553.578  0.00  0.00    +0.000 C 
ATOM      9  C   UNL     1      67.874  47.400 554.230  0.00  0.00    +0.000 C 
ATOM     10  C   UNL     1      68.469  46.522 553.148  0.00  0.00    +0.000 C 
ATOM     11  N   UNL     1      67.853  47.016 551.894  0.00  0.00    +0.000 NA
ATOM     12  C   UNL     1      67.682  48.500 552.067  0.00  0.00    +0.000 C 
BRANCH  11  13
ATOM     13  S   UNL     1      66.514  46.145 551.322  0.00  0.00    +0.000 S 
ATOM     14  C   UNL     1      67.074  45.680 549.698  0.00  0.00    +0.000 C 
ATOM     15  O   UNL     1      66.393  44.933 552.103  0.00  0.00    +0.000 OA
ATOM     16  O   UNL     1      65.406  47.070 551.203  0.00  0.00    +0.000 OA
ENDBRANCH  11  13
ENDBRANCH   5   8
BRANCH   1  17
ATOM     17  S   UNL     1      72.208  52.377 552.566  0.00  0.00    +0.000 S 
ATOM     18  O   UNL     1      72.626  53.442 553.451  0.00  0.00    +0.000 OA
ATOM     19  O   UNL     1      71.018  52.520 551.749  0.00  0.00    +0.000 OA
BRANCH  17  26
ATOM     20  C   UNL     1      73.554  50.887 550.642  0.00  0.00    +0.000 A 
ATOM     21  C   UNL     1      74.600  50.704 549.731  0.00  0.00    +0.000 A 
ATOM     22  C   UNL     1      75.619  51.649 549.636  0.00  0.00    +0.000 A 
ATOM     23  F   UNL     1      76.612  51.454 548.758  0.00  0.00    +0.000 F 
ATOM     24  C   UNL     1      75.630  52.783 550.437  0.00  0.00    +0.000 A 
ATOM     25  C   UNL     1      74.593  52.987 551.344  0.00  0.00    +0.000 A 
ATOM     26  C   UNL     1      73.558  52.044 551.441  0.00  0.00    +0.000 A 
BRANCH  20  28
ATOM     27  C   UNL     1      71.667  49.735 549.745  0.00  0.00    +0.000 C 
ATOM     28  O   UNL     1      72.549  49.978 550.839  0.00  0.00    +0.000 OA
ENDBRANCH  20  28
ENDBRANCH  17  26
ENDBRANCH   1  17
TORSDOF 5
ENDMDL
MODEL 3
REMARK VINA RESULT:      -6.0      5.370     10.485
REMARK  Name = 
REMARK  7 active torsions:
REMARK  status: ('A' for Active; 'I' for Inactive)
REMARK    1  A    between atoms: C_1  and  O_2
REMARK    2  A    between atoms: O_2  and  C_3
REMARK    3  A    between atoms: C_9  and  S_10
REMARK    4  A    between atoms: S_10  and  N_13
REMARK    5  A    between atoms: N_17  and  C_18
REMARK    6  A    between atoms: N_21  and  S_22
REMARK    7  A    between atoms: S_22  and  C_23
REMARK                            x       y       z     vdW  Elec       q    Type
REMARK                         _______ _______ _______ _____ _____    ______ ____
ROOT
ATOM      1  N   UNL     1      67.788  45.373 553.457  0.00  0.00    +0.000 N 
ATOM      2  C   UNL     1      68.319  46.599 553.084  0.00  0.00    +0.000 A 
ATOM      3  C   UNL     1      69.245  46.804 552.044  0.00  0.00    +0.000 A 
ATOM      4  C   UNL     1      69.545  48.145 552.096  0.00  0.00    +0.000 A 
ATOM      5  N   UNL     1      68.853  48.645 553.168  0.00  0.00    +0.000 N 
ATOM      6  N   UNL     1      68.096  47.714 553.775  0.00  0.00    +0.000 NA
ATOM      7  H   UNL     1      68.373  44.562 553.258  0.00  0.00    +0.000 HD
ENDROOT
BRANCH   5   8
ATOM      8  C   UNL     1      69.006  49.984 553.718  0.00  0.00    +0.000 C 
ATOM      9  C   UNL     1      69.849  50.874 552.805  0.00  0.00    +0.000 C 
ATOM     10  C   UNL     1      71.224  50.843 553.439  0.00  0.00    +0.000 C 
ATOM     11  N   UNL     1      70.958  50.850 554.897  0.00  0.00    +0.000 NA
ATOM     12  C   UNL     1      69.691  50.064 555.095  0.00  0.00    +0.000 C 
BRANCH  11  13
ATOM     13  S   UNL     1      71.062  52.356 555.671  0.00  0.00    +0.000 S 
ATOM     14  C   UNL     1      72.410  52.072 556.797  0.00  0.00    +0.000 C 
ATOM     15  O   UNL     1      71.505  53.336 554.702  0.00  0.00    +0.000 OA
ATOM     16  O   UNL     1      69.839  52.549 556.423  0.00  0.00    +0.000 OA
ENDBRANCH  11  13
ENDBRANCH   5   8
BRANCH   1  17
ATOM     17  S   UNL     1      66.221  44.973 552.956  0.00  0.00    +0.000 S 
ATOM     18  O   UNL     1      66.210  43.660 552.350  0.00  0.00    +0.000 OA
ATOM     19  O   UNL     1      65.689  46.119 552.244  0.00  0.00    +0.000 OA
BRANCH  17  26
ATOM     20  C   UNL     1      64.078  44.204 554.554  0.00  0.00    +0.000 A 
ATOM     21  C   UNL     1      63.440  44.092 555.793  0.00  0.00    +0.000 A 
ATOM     22  C   UNL     1      64.024  44.640 556.933  0.00  0.00    +0.000 A 
ATOM     23  F   UNL     1      63.396  44.524 558.110  0.00  0.00    +0.000 F 
ATOM     24  C   UNL     1      65.239  45.311 556.871  0.00  0.00    +0.000 A 
ATOM     25  C   UNL     1      65.893  45.425 555.648  0.00  0.00    +0.000 A 
ATOM     26  C   UNL     1      65.316  44.868 554.496  0.00  0.00    +0.000 A 
BRANCH  20  28
ATOM     27  C   UNL     1      62.514  44.533 552.782  0.00  0.00    +0.000 C 
ATOM     28  O   UNL     1      63.544  43.747 553.378  0.00  0.00    +0.000 OA
ENDBRANCH  20  28
ENDBRANCH  17  26
ENDBRANCH   1  17
TORSDOF 5
ENDMDL
MODEL 4
REMARK VINA RESULT:      -5.9      6.408     11.346
REMARK  Name = 
REMARK  7 active torsions:
REMARK  status: ('A' for Active; 'I' for Inactive)
REMARK    1  A    between atoms: C_1  and  O_2
REMARK    2  A    between atoms: O_2  and  C_3
REMARK    3  A    between atoms: C_9  and  S_10
REMARK    4  A    between atoms: S_10  and  N_13
REMARK    5  A    between atoms: N_17  and  C_18
REMARK    6  A    between atoms: N_21  and  S_22
REMARK    7  A    between atoms: S_22  and  C_23
REMARK                            x       y       z     vdW  Elec       q    Type
REMARK                         _______ _______ _______ _____ _____    ______ ____
ROOT
ATOM      1  N   UNL     1      66.707  48.554 553.679  0.00  0.00    +0.000 N 
ATOM      2  C   UNL     1      68.005  49.027 553.565  0.00  0.00    +0.000 A 
ATOM      3  C   UNL     1      68.991  48.955 554.567  0.00  0.00    +0.000 A 
ATOM      4  C   UNL     1      70.078  49.616 554.044  0.00  0.00    +0.000 A 
ATOM      5  N   UNL     1      69.680  50.087 552.820  0.00  0.00    +0.000 N 
ATOM      6  N   UNL     1      68.421  49.729 552.512  0.00  0.00    +0.000 NA
ATOM      7  H   UNL     1      66.332  48.526 554.626  0.00  0.00    +0.000 HD
ENDROOT
BRANCH   5   8
ATOM      8  C   UNL     1      70.442  51.002 551.983  0.00  0.00    +0.000 C 
ATOM      9  C   UNL     1      70.793  50.372 550.636  0.00  0.00    +0.000 C 
ATOM     10  C   UNL     1      72.224  49.910 550.815  0.00  0.00    +0.000 C 
ATOM     11  N   UNL     1      72.855  50.973 551.632  0.00  0.00    +0.000 NA
ATOM     12  C   UNL     1      71.788  51.473 552.566  0.00  0.00    +0.000 C 
BRANCH  11  13
ATOM     13  S   UNL     1      73.749  52.140 550.784  0.00  0.00    +0.000 S 
ATOM     14  C   UNL     1      74.770  51.109 549.754  0.00  0.00    +0.000 C 
ATOM     15  O   UNL     1      72.845  52.862 549.915  0.00  0.00    +0.000 OA
ATOM     16  O   UNL     1      74.581  52.838 551.742  0.00  0.00    +0.000 OA
ENDBRANCH  11  13
ENDBRANCH   5   8
BRANCH   1  17
ATOM     17  S   UNL     1      66.307  47.077 552.956  0.00  0.00    +0.000 S 
ATOM     18  O   UNL     1      67.502  46.415 552.480  0.00  0.00    +0.000 OA
ATOM     19  O   UNL     1      65.192  47.321 552.061  0.00  0.00    +0.000 OA
BRANCH  17  26
ATOM     20  C   UNL     1      65.186  44.810 554.113  0.00  0.00    +0.000 A 
ATOM     21  C   UNL     1      64.751  44.076 555.222  0.00  0.00    +0.000 A 
ATOM     22  C   UNL     1      64.785  44.644 556.493  0.00  0.00    +0.000 A 
ATOM     23  F   UNL     1      64.361  43.925 557.542  0.00  0.00    +0.000 F 
ATOM     24  C   UNL     1      65.238  45.941 556.694  0.00  0.00    +0.000 A 
ATOM     25  C   UNL     1      65.683  46.684 555.604  0.00  0.00    +0.000 A 
ATOM     26  C   UNL     1      65.661  46.117 554.320  0.00  0.00    +0.000 A 
BRANCH  20  28
ATOM     27  C   UNL     1      66.027  43.298 552.470  0.00  0.00    +0.000 C 
ATOM     28  O   UNL     1      65.130  44.348 552.825  0.00  0.00    +0.000 OA
ENDBRANCH  20  28
ENDBRANCH  17  26
ENDBRANCH   1  17
TORSDOF 5
ENDMDL
MODEL 5
REMARK VINA RESULT:      -5.8      5.999      8.307
REMARK  Name = 
REMARK  7 active torsions:
REMARK  status: ('A' for Active; 'I' for Inactive)
REMARK    1  A    between atoms: C_1  and  O_2
REMARK    2  A    between atoms: O_2  and  C_3
REMARK    3  A    between atoms: C_9  and  S_10
REMARK    4  A    between atoms: S_10  and  N_13
REMARK    5  A    between atoms: N_17  and  C_18
REMARK    6  A    between atoms: N_21  and  S_22
REMARK    7  A    between atoms: S_22  and  C_23
REMARK                            x       y       z     vdW  Elec       q    Type
REMARK                         _______ _______ _______ _____ _____    ______ ____
ROOT
ATOM      1  N   UNL     1      67.830  48.705 552.758  0.00  0.00    +0.000 N 
ATOM      2  C   UNL     1      66.886  47.841 553.295  0.00  0.00    +0.000 A 
ATOM      3  C   UNL     1      65.506  47.869 553.021  0.00  0.00    +0.000 A 
ATOM      4  C   UNL     1      64.964  46.899 553.830  0.00  0.00    +0.000 A 
ATOM      5  N   UNL     1      66.005  46.397 554.566  0.00  0.00    +0.000 N 
ATOM      6  N   UNL     1      67.184  46.958 554.245  0.00  0.00    +0.000 NA
ATOM      7  H   UNL     1      67.481  49.623 552.488  0.00  0.00    +0.000 HD
ENDROOT
BRANCH   5   8
ATOM      8  C   UNL     1      65.875  45.474 555.684  0.00  0.00    +0.000 C 
ATOM      9  C   UNL     1      65.356  44.110 555.232  0.00  0.00    +0.000 C 
ATOM     10  C   UNL     1      63.879  44.157 555.564  0.00  0.00    +0.000 C 
ATOM     11  N   UNL     1      63.814  44.892 556.850  0.00  0.00    +0.000 NA
ATOM     12  C   UNL     1      64.914  45.916 556.804  0.00  0.00    +0.000 C 
BRANCH  11  13
ATOM     13  S   UNL     1      63.700  43.941 558.250  0.00  0.00    +0.000 S 
ATOM     14  C   UNL     1      63.033  45.115 559.410  0.00  0.00    +0.000 C 
ATOM     15  O   UNL     1      62.692  42.926 558.031  0.00  0.00    +0.000 OA
ATOM     16  O   UNL     1      65.046  43.583 558.649  0.00  0.00    +0.000 OA
ENDBRANCH  11  13
ENDBRANCH   5   8
BRANCH   1  17
ATOM     17  S   UNL     1      68.805  48.163 551.485  0.00  0.00    +0.000 S 
ATOM     18  O   UNL     1      68.089  48.260 550.232  0.00  0.00    +0.000 OA
ATOM     19  O   UNL     1      69.400  46.908 551.900  0.00  0.00    +0.000 OA
BRANCH  17  26
ATOM     20  C   UNL     1      70.738  49.796 552.640  0.00  0.00    +0.000 A 
ATOM     21  C   UNL     1      71.813  50.687 552.555  0.00  0.00    +0.000 A 
ATOM     22  C   UNL     1      72.253  51.135 551.311  0.00  0.00    +0.000 A 
ATOM     23  F   UNL     1      73.283  51.990 551.251  0.00  0.00    +0.000 F 
ATOM     24  C   UNL     1      71.641  50.721 550.135  0.00  0.00    +0.000 A 
ATOM     25  C   UNL     1      70.575  49.828 550.200  0.00  0.00    +0.000 A 
ATOM     26  C   UNL     1      70.130  49.364 551.448  0.00  0.00    +0.000 A 
BRANCH  20  28
ATOM     27  C   UNL     1      70.101  50.304 554.883  0.00  0.00    +0.000 C 
ATOM     28  O   UNL     1      70.207  49.355 553.823  0.00  0.00    +0.000 OA
ENDBRANCH  20  28
ENDBRANCH  17  26
ENDBRANCH   1  17
TORSDOF 5
ENDMDL
MODEL 6
REMARK VINA RESULT:      -5.8      8.703     12.190
REMARK  Name = 
REMARK  7 active torsions:
REMARK  status: ('A' for Active; 'I' for Inactive)
REMARK    1  A    between atoms: C_1  and  O_2
REMARK    2  A    between atoms: O_2  and  C_3
REMARK    3  A    between atoms: C_9  and  S_10
REMARK    4  A    between atoms: S_10  and  N_13
REMARK    5  A    between atoms: N_17  and  C_18
REMARK    6  A    between atoms: N_21  and  S_22
REMARK    7  A    between atoms: S_22  and  C_23
REMARK                            x       y       z     vdW  Elec       q    Type
REMARK                         _______ _______ _______ _____ _____    ______ ____
ROOT
ATOM      1  N   UNL     1      72.469  50.851 552.235  0.00  0.00    +0.000 N 
ATOM      2  C   UNL     1      71.205  50.528 552.704  0.00  0.00    +0.000 A 
ATOM      3  C   UNL     1      70.269  51.442 553.224  0.00  0.00    +0.000 A 
ATOM      4  C   UNL     1      69.209  50.669 553.636  0.00  0.00    +0.000 A 
ATOM      5  N   UNL     1      69.577  49.369 553.404  0.00  0.00    +0.000 N 
ATOM      6  N   UNL     1      70.789  49.269 552.830  0.00  0.00    +0.000 NA
ATOM      7  H   UNL     1      72.889  51.685 552.644  0.00  0.00    +0.000 HD
ENDROOT
BRANCH   5   8
ATOM      8  C   UNL     1      68.843  48.195 553.851  0.00  0.00    +0.000 C 
ATOM      9  C   UNL     1      69.089  46.995 552.937  0.00  0.00    +0.000 C 
ATOM     10  C   UNL     1      67.871  46.973 552.036  0.00  0.00    +0.000 C 
ATOM     11  N   UNL     1      66.749  47.357 552.924  0.00  0.00    +0.000 NA
ATOM     12  C   UNL     1      67.312  48.348 553.906  0.00  0.00    +0.000 C 
BRANCH  11  13
ATOM     13  S   UNL     1      65.823  46.084 553.556  0.00  0.00    +0.000 S 
ATOM     14  C   UNL     1      65.819  46.488 555.290  0.00  0.00    +0.000 C 
ATOM     15  O   UNL     1      64.466  46.225 553.075  0.00  0.00    +0.000 OA
ATOM     16  O   UNL     1      66.564  44.857 553.350  0.00  0.00    +0.000 OA
ENDBRANCH  11  13
ENDBRANCH   5   8
BRANCH   1  17
ATOM     17  S   UNL     1      72.721  50.952 550.564  0.00  0.00    +0.000 S 
ATOM     18  O   UNL     1      71.765  51.860 549.969  0.00  0.00    +0.000 OA
ATOM     19  O   UNL     1      72.862  49.598 550.065  0.00  0.00    +0.000 OA
BRANCH  17  26
ATOM     20  C   UNL     1      74.672  52.816 551.241  0.00  0.00    +0.000 A 
ATOM     21  C   UNL     1      75.969  53.332 551.155  0.00  0.00    +0.000 A 
ATOM     22  C   UNL     1      76.894  52.758 550.286  0.00  0.00    +0.000 A 
ATOM     23  F   UNL     1      78.131  53.268 550.217  0.00  0.00    +0.000 F 
ATOM     24  C   UNL     1      76.558  51.675 549.484  0.00  0.00    +0.000 A 
ATOM     25  C   UNL     1      75.274  51.142 549.562  0.00  0.00    +0.000 A 
ATOM     26  C   UNL     1      74.337  51.709 550.441  0.00  0.00    +0.000 A 
BRANCH  20  28
ATOM     27  C   UNL     1      73.245  54.674 551.695  0.00  0.00    +0.000 C 
ATOM     28  O   UNL     1      73.687  53.358 552.024  0.00  0.00    +0.000 OA
ENDBRANCH  20  28
ENDBRANCH  17  26
ENDBRANCH   1  17
TORSDOF 5
ENDMDL
MODEL 7
REMARK VINA RESULT:      -5.7      6.751     11.521
REMARK  Name = 
REMARK  7 active torsions:
REMARK  status: ('A' for Active; 'I' for Inactive)
REMARK    1  A    between atoms: C_1  and  O_2
REMARK    2  A    between atoms: O_2  and  C_3
REMARK    3  A    between atoms: C_9  and  S_10
REMARK    4  A    between atoms: S_10  and  N_13
REMARK    5  A    between atoms: N_17  and  C_18
REMARK    6  A    between atoms: N_21  and  S_22
REMARK    7  A    between atoms: S_22  and  C_23
REMARK                            x       y       z     vdW  Elec       q    Type
REMARK                         _______ _______ _______ _____ _____    ______ ____
ROOT
ATOM      1  N   UNL     1      67.059  49.076 553.671  0.00  0.00    +0.000 N 
ATOM      2  C   UNL     1      68.312  49.104 553.077  0.00  0.00    +0.000 A 
ATOM      3  C   UNL     1      69.334  48.157 553.282  0.00  0.00    +0.000 A 
ATOM      4  C   UNL     1      70.406  48.632 552.565  0.00  0.00    +0.000 A 
ATOM      5  N   UNL     1      70.005  49.829 552.032  0.00  0.00    +0.000 N 
ATOM      6  N   UNL     1      68.727  50.126 552.331  0.00  0.00    +0.000 NA
ATOM      7  H   UNL     1      67.012  48.607 554.575  0.00  0.00    +0.000 HD
ENDROOT
BRANCH   5   8
ATOM      8  C   UNL     1      70.870  50.777 551.347  0.00  0.00    +0.000 C 
ATOM      9  C   UNL     1      70.760  50.644 549.829  0.00  0.00    +0.000 C 
ATOM     10  C   UNL     1      71.968  49.813 549.450  0.00  0.00    +0.000 C 
ATOM     11  N   UNL     1      73.043  50.294 550.350  0.00  0.00    +0.000 NA
ATOM     12  C   UNL     1      72.374  50.645 551.651  0.00  0.00    +0.000 C 
BRANCH  11  13
ATOM     13  S   UNL     1      74.111  51.439 549.697  0.00  0.00    +0.000 S 
ATOM     14  C   UNL     1      74.008  52.738 550.909  0.00  0.00    +0.000 C 
ATOM     15  O   UNL     1      75.451  50.896 549.754  0.00  0.00    +0.000 OA
ATOM     16  O   UNL     1      73.547  51.903 548.446  0.00  0.00    +0.000 OA
ENDBRANCH  11  13
ENDBRANCH   5   8
BRANCH   1  17
ATOM     17  S   UNL     1      65.738  48.523 552.770  0.00  0.00    +0.000 S 
ATOM     18  O   UNL     1      65.817  49.018 551.413  0.00  0.00    +0.000 OA
ATOM     19  O   UNL     1      64.547  48.744 553.568  0.00  0.00    +0.000 OA
BRANCH  17  26
ATOM     20  C   UNL     1      66.148  46.018 553.906  0.00  0.00    +0.000 A 
ATOM     21  C   UNL     1      66.280  44.628 553.817  0.00  0.00    +0.000 A 
ATOM     22  C   UNL     1      66.264  44.003 552.573  0.00  0.00    +0.000 A 
ATOM     23  F   UNL     1      66.394  42.671 552.509  0.00  0.00    +0.000 F 
ATOM     24  C   UNL     1      66.127  44.732 551.399  0.00  0.00    +0.000 A 
ATOM     25  C   UNL     1      65.987  46.115 551.468  0.00  0.00    +0.000 A 
ATOM     26  C   UNL     1      65.992  46.753 552.718  0.00  0.00    +0.000 A 
BRANCH  20  28
ATOM     27  C   UNL     1      65.414  46.241 556.166  0.00  0.00    +0.000 C 
ATOM     28  O   UNL     1      66.213  46.715 555.084  0.00  0.00    +0.000 OA
ENDBRANCH  20  28
ENDBRANCH  17  26
ENDBRANCH   1  17
TORSDOF 5
ENDMDL
MODEL 8
REMARK VINA RESULT:      -5.5      7.355     12.043
REMARK  Name = 
REMARK  7 active torsions:
REMARK  status: ('A' for Active; 'I' for Inactive)
REMARK    1  A    between atoms: C_1  and  O_2
REMARK    2  A    between atoms: O_2  and  C_3
REMARK    3  A    between atoms: C_9  and  S_10
REMARK    4  A    between atoms: S_10  and  N_13
REMARK    5  A    between atoms: N_17  and  C_18
REMARK    6  A    between atoms: N_21  and  S_22
REMARK    7  A    between atoms: S_22  and  C_23
REMARK                            x       y       z     vdW  Elec       q    Type
REMARK                         _______ _______ _______ _____ _____    ______ ____
ROOT
ATOM      1  N   UNL     1      68.406  47.595 552.141  0.00  0.00    +0.000 N 
ATOM      2  C   UNL     1      69.197  48.432 551.369  0.00  0.00    +0.000 A 
ATOM      3  C   UNL     1      68.844  48.958 550.112  0.00  0.00    +0.000 A 
ATOM      4  C   UNL     1      69.954  49.652 549.693  0.00  0.00    +0.000 A 
ATOM      5  N   UNL     1      70.906  49.463 550.661  0.00  0.00    +0.000 N 
ATOM      6  N   UNL     1      70.455  48.726 551.692  0.00  0.00    +0.000 NA
ATOM      7  H   UNL     1      67.741  47.021 551.626  0.00  0.00    +0.000 HD
ENDROOT
BRANCH   5   8
ATOM      8  C   UNL     1      72.301  49.862 550.557  0.00  0.00    +0.000 C 
ATOM      9  C   UNL     1      72.704  50.801 551.693  0.00  0.00    +0.000 C 
ATOM     10  C   UNL     1      72.636  52.178 551.066  0.00  0.00    +0.000 C 
ATOM     11  N   UNL     1      73.141  51.979 549.686  0.00  0.00    +0.000 NA
ATOM     12  C   UNL     1      72.687  50.608 549.267  0.00  0.00    +0.000 C 
BRANCH  11  13
ATOM     13  S   UNL     1      74.772  52.367 549.423  0.00  0.00    +0.000 S 
ATOM     14  C   UNL     1      75.095  53.450 550.798  0.00  0.00    +0.000 C 
ATOM     15  O   UNL     1      75.562  51.171 549.619  0.00  0.00    +0.000 OA
ATOM     16  O   UNL     1      74.851  53.120 548.189  0.00  0.00    +0.000 OA
ENDBRANCH  11  13
ENDBRANCH   5   8
BRANCH   1  17
ATOM     17  S   UNL     1      67.564  48.248 553.456  0.00  0.00    +0.000 S 
ATOM     18  O   UNL     1      66.853  49.441 553.051  0.00  0.00    +0.000 OA
ATOM     19  O   UNL     1      68.478  48.280 554.582  0.00  0.00    +0.000 OA
BRANCH  17  26
ATOM     20  C   UNL     1      65.612  46.381 552.795  0.00  0.00    +0.000 A 
ATOM     21  C   UNL     1      64.719  45.357 553.128  0.00  0.00    +0.000 A 
ATOM     22  C   UNL     1      64.567  44.967 554.457  0.00  0.00    +0.000 A 
ATOM     23  F   UNL     1      63.705  43.986 554.756  0.00  0.00    +0.000 F 
ATOM     24  C   UNL     1      65.282  45.580 555.477  0.00  0.00    +0.000 A 
ATOM     25  C   UNL     1      66.182  46.596 555.163  0.00  0.00    +0.000 A 
ATOM     26  C   UNL     1      66.348  46.990 553.827  0.00  0.00    +0.000 A 
BRANCH  20  28
ATOM     27  C   UNL     1      65.688  45.924 550.454  0.00  0.00    +0.000 C 
ATOM     28  O   UNL     1      65.776  46.864 551.523  0.00  0.00    +0.000 OA
ENDBRANCH  20  28
ENDBRANCH  17  26
ENDBRANCH   1  17
TORSDOF 5
ENDMDL
MODEL 9
REMARK VINA RESULT:      -5.5      6.134     11.250
REMARK  Name = 
REMARK  7 active torsions:
REMARK  status: ('A' for Active; 'I' for Inactive)
REMARK    1  A    between atoms: C_1  and  O_2
REMARK    2  A    between atoms: O_2  and  C_3
REMARK    3  A    between atoms: C_9  and  S_10
REMARK    4  A    between atoms: S_10  and  N_13
REMARK    5  A    between atoms: N_17  and  C_18
REMARK    6  A    between atoms: N_21  and  S_22
REMARK    7  A    between atoms: S_22  and  C_23
REMARK                            x       y       z     vdW  Elec       q    Type
REMARK                         _______ _______ _______ _____ _____    ______ ____
ROOT
ATOM      1  N   UNL     1      67.569  46.645 553.297  0.00  0.00    +0.000 N 
ATOM      2  C   UNL     1      68.569  47.605 553.278  0.00  0.00    +0.000 A 
ATOM      3  C   UNL     1      69.600  47.691 552.323  0.00  0.00    +0.000 A 
ATOM      4  C   UNL     1      70.393  48.730 552.748  0.00  0.00    +0.000 A 
ATOM      5  N   UNL     1      69.848  49.161 553.930  0.00  0.00    +0.000 N 
ATOM      6  N   UNL     1      68.732  48.488 554.261  0.00  0.00    +0.000 NA
ATOM      7  H   UNL     1      67.807  45.753 552.866  0.00  0.00    +0.000 HD
ENDROOT
BRANCH   5   8
ATOM      8  C   UNL     1      70.457  50.126 554.833  0.00  0.00    +0.000 C 
ATOM      9  C   UNL     1      69.404  50.881 555.643  0.00  0.00    +0.000 C 
ATOM     10  C   UNL     1      69.259  52.198 554.908  0.00  0.00    +0.000 C 
ATOM     11  N   UNL     1      70.637  52.531 554.475  0.00  0.00    +0.000 NA
ATOM     12  C   UNL     1      71.307  51.222 554.163  0.00  0.00    +0.000 C 
BRANCH  11  13
ATOM     13  S   UNL     1      71.488  53.620 555.459  0.00  0.00    +0.000 S 
ATOM     14  C   UNL     1      72.554  52.513 556.357  0.00  0.00    +0.000 C 
ATOM     15  O   UNL     1      72.328  54.439 554.611  0.00  0.00    +0.000 OA
ATOM     16  O   UNL     1      70.539  54.221 556.373  0.00  0.00    +0.000 OA
ENDBRANCH  11  13
ENDBRANCH   5   8
BRANCH   1  17
ATOM     17  S   UNL     1      66.028  47.059 552.732  0.00  0.00    +0.000 S 
ATOM     18  O   UNL     1      66.036  47.163 551.289  0.00  0.00    +0.000 OA
ATOM     19  O   UNL     1      65.547  48.157 553.548  0.00  0.00    +0.000 OA
BRANCH  17  26
ATOM     20  C   UNL     1      64.938  45.214 554.506  0.00  0.00    +0.000 A 
ATOM     21  C   UNL     1      64.102  44.133 554.804  0.00  0.00    +0.000 A 
ATOM     22  C   UNL     1      63.397  43.492 553.788  0.00  0.00    +0.000 A 
ATOM     23  F   UNL     1      62.602  42.458 554.094  0.00  0.00    +0.000 F 
ATOM     24  C   UNL     1      63.510  43.897 552.464  0.00  0.00    +0.000 A 
ATOM     25  C   UNL     1      64.331  44.975 552.148  0.00  0.00    +0.000 A 
ATOM     26  C   UNL     1      65.038  45.633 553.167  0.00  0.00    +0.000 A 
BRANCH  20  28
ATOM     27  C   UNL     1      65.284  45.791 556.795  0.00  0.00    +0.000 C 
ATOM     28  O   UNL     1      65.710  45.859 555.436  0.00  0.00    +0.000 OA
ENDBRANCH  20  28
ENDBRANCH  17  26
ENDBRANCH   1  17
TORSDOF 5
ENDMDL
MODEL 10
REMARK VINA RESULT:      -5.3      7.313     11.934
REMARK  Name = 
REMARK  7 active torsions:
REMARK  status: ('A' for Active; 'I' for Inactive)
REMARK    1  A    between atoms: C_1  and  O_2
REMARK    2  A    between atoms: O_2  and  C_3
REMARK    3  A    between atoms: C_9  and  S_10
REMARK    4  A    between atoms: S_10  and  N_13
REMARK    5  A    between atoms: N_17  and  C_18
REMARK    6  A    between atoms: N_21  and  S_22
REMARK    7  A    between atoms: S_22  and  C_23
REMARK                            x       y       z     vdW  Elec       q    Type
REMARK                         _______ _______ _______ _____ _____    ______ ____
ROOT
ATOM      1  N   UNL     1      67.378  48.477 551.046  0.00  0.00    +0.000 N 
ATOM      2  C   UNL     1      68.741  48.733 551.076  0.00  0.00    +0.000 A 
ATOM      3  C   UNL     1      69.594  48.481 552.167  0.00  0.00    +0.000 A 
ATOM      4  C   UNL     1      70.821  48.966 551.777  0.00  0.00    +0.000 A 
ATOM      5  N   UNL     1      70.632  49.519 550.538  0.00  0.00    +0.000 N 
ATOM      6  N   UNL     1      69.369  49.378 550.095  0.00  0.00    +0.000 NA
ATOM      7  H   UNL     1      66.908  48.492 551.950  0.00  0.00    +0.000 HD
ENDROOT
BRANCH   5   8
ATOM      8  C   UNL     1      71.612  50.312 549.812  0.00  0.00    +0.000 C 
ATOM      9  C   UNL     1      72.643  49.430 549.110  0.00  0.00    +0.000 C 
ATOM     10  C   UNL     1      73.837  49.457 550.041  0.00  0.00    +0.000 C 
ATOM     11  N   UNL     1      73.873  50.848 550.552  0.00  0.00    +0.000 NA
ATOM     12  C   UNL     1      72.441  51.290 550.667  0.00  0.00    +0.000 C 
BRANCH  11  13
ATOM     13  S   UNL     1      74.948  51.905 549.773  0.00  0.00    +0.000 S 
ATOM     14  C   UNL     1      75.209  53.127 551.040  0.00  0.00    +0.000 C 
ATOM     15  O   UNL     1      76.203  51.212 549.573  0.00  0.00    +0.000 OA
ATOM     16  O   UNL     1      74.243  52.508 548.661  0.00  0.00    +0.000 OA
ENDBRANCH  11  13
ENDBRANCH   5   8
BRANCH   1  17
ATOM     17  S   UNL     1      66.823  47.099 550.235  0.00  0.00    +0.000 S 
ATOM     18  O   UNL     1      67.814  46.048 550.300  0.00  0.00    +0.000 OA
ATOM     19  O   UNL     1      66.290  47.533 548.958  0.00  0.00    +0.000 OA
BRANCH  17  26
ATOM     20  C   UNL     1      65.536  46.455 552.615  0.00  0.00    +0.000 A 
ATOM     21  C   UNL     1      64.395  46.112 553.349  0.00  0.00    +0.000 A 
ATOM     22  C   UNL     1      63.183  45.898 552.697  0.00  0.00    +0.000 A 
ATOM     23  F   UNL     1      62.102  45.569 553.418  0.00  0.00    +0.000 F 
ATOM     24  C   UNL     1      63.074  46.010 551.318  0.00  0.00    +0.000 A 
ATOM     25  C   UNL     1      64.197  46.358 550.571  0.00  0.00    +0.000 A 
ATOM     26  C   UNL     1      65.421  46.584 551.220  0.00  0.00    +0.000 A 
BRANCH  20  28
ATOM     27  C   UNL     1      66.834  46.854 554.578  0.00  0.00    +0.000 C 
ATOM     28  O   UNL     1      66.777  46.622 553.171  0.00  0.00    +0.000 OA
ENDBRANCH  20  28
ENDBRANCH  17  26
ENDBRANCH   1  17
TORSDOF 5
ENDMDL
