MODEL 1
REMARK VINA RESULT:      -6.1      0.000      0.000
REMARK  Name = 
REMARK  5 active torsions:
REMARK  status: ('A' for Active; 'I' for Inactive)
REMARK    1  A    between atoms: C_1  and  O_2
REMARK    2  A    between atoms: O_2  and  C_3
REMARK    3  A    between atoms: C_9  and  S_10
REMARK    4  A    between atoms: S_10  and  N_13
REMARK    5  A    between atoms: N_17  and  C_18
REMARK                            x       y       z     vdW  Elec       q    Type
REMARK                         _______ _______ _______ _____ _____    ______ ____
ROOT
ATOM      1  S   UNL     1      66.330  44.048 553.180  0.00  0.00    +0.000 S 
ATOM      2  O   UNL     1      66.057  43.397 551.913  0.00  0.00    +0.000 OA
ATOM      3  O   UNL     1      67.202  43.426 554.154  0.00  0.00    +0.000 OA
ENDROOT
BRANCH   1  10
ATOM      4  C   UNL     1      66.213  46.632 552.172  0.00  0.00    +0.000 A 
ATOM      5  C   UNL     1      66.766  47.896 551.942  0.00  0.00    +0.000 A 
ATOM      6  C   UNL     1      68.065  48.177 552.364  0.00  0.00    +0.000 A 
ATOM      7  F   UNL     1      68.576  49.394 552.137  0.00  0.00    +0.000 F 
ATOM      8  C   UNL     1      68.838  47.222 553.010  0.00  0.00    +0.000 A 
ATOM      9  C   UNL     1      68.304  45.957 553.248  0.00  0.00    +0.000 A 
ATOM     10  C   UNL     1      66.995  45.668 552.834  0.00  0.00    +0.000 A 
BRANCH   4  12
ATOM     11  C   UNL     1      64.650  46.388 550.381  0.00  0.00    +0.000 C 
ATOM     12  O   UNL     1      64.958  46.260 551.767  0.00  0.00    +0.000 OA
ENDBRANCH   4  12
ENDBRANCH   1  10
BRANCH   1  13
ATOM     13  N   UNL     1      64.858  44.394 553.939  0.00  0.00    +0.000 N 
ATOM     14  C   UNL     1      64.891  44.833 555.251  0.00  0.00    +0.000 A 
ATOM     15  C   UNL     1      65.310  46.086 555.737  0.00  0.00    +0.000 A 
ATOM     16  C   UNL     1      65.088  46.023 557.095  0.00  0.00    +0.000 A 
ATOM     17  N   UNL     1      64.588  44.774 557.330  0.00  0.00    +0.000 N 
ATOM     18  N   UNL     1      64.435  44.042 556.216  0.00  0.00    +0.000 NA
ATOM     19  H   UNL     1      64.263  43.568 553.841  0.00  0.00    +0.000 HD
BRANCH  17  20
ATOM     20  C   UNL     1      64.324  44.259 558.644  0.00  0.00    +0.000 C 
ATOM     21  C   UNL     1      63.058  43.441 558.920  0.00  0.00    +0.000 C 
ATOM     22  C   UNL     1      63.212  44.791 559.481  0.00  0.00    +0.000 C 
ATOM     23  F   UNL     1      63.391  44.951 560.837  0.00  0.00    +0.000 F 
ATOM     24  F   UNL     1      62.397  45.815 559.061  0.00  0.00    +0.000 F 
ENDBRANCH  17  20
ENDBRANCH   1  13
TORSDOF 4
ENDMDL
MODEL 2
REMARK VINA RESULT:      -5.9      2.455      7.410
REMARK  Name = 
REMARK  5 active torsions:
REMARK  status: ('A' for Active; 'I' for Inactive)
REMARK    1  A    between atoms: C_1  and  O_2
REMARK    2  A    between atoms: O_2  and  C_3
REMARK    3  A    between atoms: C_9  and  S_10
REMARK    4  A    between atoms: S_10  and  N_13
REMARK    5  A    between atoms: N_17  and  C_18
REMARK                            x       y       z     vdW  Elec       q    Type
REMARK                         _______ _______ _______ _____ _____    ______ ____
ROOT
ATOM      1  S   UNL     1      64.499  44.790 555.830  0.00  0.00    +0.000 S 
ATOM      2  O   UNL     1      65.682  43.957 555.730  0.00  0.00    +0.000 OA
ATOM      3  O   UNL     1      63.434  44.676 554.856  0.00  0.00    +0.000 OA
ENDROOT
BRANCH   1  10
ATOM      4  C   UNL     1      63.100  43.322 557.726  0.00  0.00    +0.000 A 
ATOM      5  C   UNL     1      62.566  43.147 559.007  0.00  0.00    +0.000 A 
ATOM      6  C   UNL     1      62.705  44.151 559.965  0.00  0.00    +0.000 A 
ATOM      7  F   UNL     1      62.190  43.963 561.187  0.00  0.00    +0.000 F 
ATOM      8  C   UNL     1      63.362  45.339 559.677  0.00  0.00    +0.000 A 
ATOM      9  C   UNL     1      63.900  45.532 558.407  0.00  0.00    +0.000 A 
ATOM     10  C   UNL     1      63.773  44.524 557.439  0.00  0.00    +0.000 A 
BRANCH   4  12
ATOM     11  C   UNL     1      61.994  41.390 556.860  0.00  0.00    +0.000 C 
ATOM     12  O   UNL     1      62.986  42.404 556.717  0.00  0.00    +0.000 OA
ENDBRANCH   4  12
ENDBRANCH   1  10
BRANCH   1  13
ATOM     13  N   UNL     1      64.982  46.411 555.893  0.00  0.00    +0.000 N 
ATOM     14  C   UNL     1      65.453  46.994 554.731  0.00  0.00    +0.000 A 
ATOM     15  C   UNL     1      64.719  47.372 553.590  0.00  0.00    +0.000 A 
ATOM     16  C   UNL     1      65.650  47.951 552.756  0.00  0.00    +0.000 A 
ATOM     17  N   UNL     1      66.842  47.867 553.417  0.00  0.00    +0.000 N 
ATOM     18  N   UNL     1      66.739  47.311 554.634  0.00  0.00    +0.000 NA
ATOM     19  H   UNL     1      65.664  46.495 556.652  0.00  0.00    +0.000 HD
BRANCH  17  20
ATOM     20  C   UNL     1      68.098  48.261 552.843  0.00  0.00    +0.000 C 
ATOM     21  C   UNL     1      68.517  47.750 551.460  0.00  0.00    +0.000 C 
ATOM     22  C   UNL     1      69.216  47.291 552.670  0.00  0.00    +0.000 C 
ATOM     23  F   UNL     1      70.513  47.692 552.903  0.00  0.00    +0.000 F 
ATOM     24  F   UNL     1      69.123  45.979 553.071  0.00  0.00    +0.000 F 
ENDBRANCH  17  20
ENDBRANCH   1  13
TORSDOF 4
ENDMDL
MODEL 3
REMARK VINA RESULT:      -5.7      1.896      2.399
REMARK  Name = 
REMARK  5 active torsions:
REMARK  status: ('A' for Active; 'I' for Inactive)
REMARK    1  A    between atoms: C_1  and  O_2
REMARK    2  A    between atoms: O_2  and  C_3
REMARK    3  A    between atoms: C_9  and  S_10
REMARK    4  A    between atoms: S_10  and  N_13
REMARK    5  A    between atoms: N_17  and  C_18
REMARK                            x       y       z     vdW  Elec       q    Type
REMARK                         _______ _______ _______ _____ _____    ______ ____
ROOT
ATOM      1  S   UNL     1      65.890  46.511 553.383  0.00  0.00    +0.000 S 
ATOM      2  O   UNL     1      64.542  47.035 553.511  0.00  0.00    +0.000 OA
ATOM      3  O   UNL     1      66.271  45.740 552.220  0.00  0.00    +0.000 OA
ENDROOT
BRANCH   1  10
ATOM      4  C   UNL     1      66.952  48.951 552.591  0.00  0.00    +0.000 A 
ATOM      5  C   UNL     1      67.848  50.015 552.736  0.00  0.00    +0.000 A 
ATOM      6  C   UNL     1      68.787  50.002 553.766  0.00  0.00    +0.000 A 
ATOM      7  F   UNL     1      69.634  51.031 553.891  0.00  0.00    +0.000 F 
ATOM      8  C   UNL     1      68.864  48.943 554.661  0.00  0.00    +0.000 A 
ATOM      9  C   UNL     1      67.981  47.874 554.532  0.00  0.00    +0.000 A 
ATOM     10  C   UNL     1      67.026  47.883 553.503  0.00  0.00    +0.000 A 
BRANCH   4  12
ATOM     11  C   UNL     1      66.493  48.707 550.259  0.00  0.00    +0.000 C 
ATOM     12  O   UNL     1      66.018  48.867 551.593  0.00  0.00    +0.000 OA
ENDBRANCH   4  12
ENDBRANCH   1  10
BRANCH   1  13
ATOM     13  N   UNL     1      66.248  45.597 554.761  0.00  0.00    +0.000 N 
ATOM     14  C   UNL     1      65.195  45.172 555.551  0.00  0.00    +0.000 A 
ATOM     15  C   UNL     1      64.247  44.171 555.269  0.00  0.00    +0.000 A 
ATOM     16  C   UNL     1      63.462  44.108 556.399  0.00  0.00    +0.000 A 
ATOM     17  N   UNL     1      63.960  45.055 557.248  0.00  0.00    +0.000 N 
ATOM     18  N   UNL     1      65.033  45.697 556.761  0.00  0.00    +0.000 NA
ATOM     19  H   UNL     1      66.930  46.128 555.309  0.00  0.00    +0.000 HD
BRANCH  17  20
ATOM     20  C   UNL     1      63.354  45.391 558.505  0.00  0.00    +0.000 C 
ATOM     21  C   UNL     1      64.178  45.377 559.796  0.00  0.00    +0.000 C 
ATOM     22  C   UNL     1      63.136  44.367 559.565  0.00  0.00    +0.000 C 
ATOM     23  F   UNL     1      61.982  44.392 560.316  0.00  0.00    +0.000 F 
ATOM     24  F   UNL     1      63.474  43.045 559.394  0.00  0.00    +0.000 F 
ENDBRANCH  17  20
ENDBRANCH   1  13
TORSDOF 4
ENDMDL
MODEL 4
REMARK VINA RESULT:      -5.6      1.620      2.142
REMARK  Name = 
REMARK  5 active torsions:
REMARK  status: ('A' for Active; 'I' for Inactive)
REMARK    1  A    between atoms: C_1  and  O_2
REMARK    2  A    between atoms: O_2  and  C_3
REMARK    3  A    between atoms: C_9  and  S_10
REMARK    4  A    between atoms: S_10  and  N_13
REMARK    5  A    between atoms: N_17  and  C_18
REMARK                            x       y       z     vdW  Elec       q    Type
REMARK                         _______ _______ _______ _____ _____    ______ ____
ROOT
ATOM      1  S   UNL     1      65.859  46.025 552.691  0.00  0.00    +0.000 S 
ATOM      2  O   UNL     1      64.865  47.024 553.033  0.00  0.00    +0.000 OA
ATOM      3  O   UNL     1      65.584  45.031 551.675  0.00  0.00    +0.000 OA
ENDROOT
BRANCH   1  10
ATOM      4  C   UNL     1      67.377  47.657 551.037  0.00  0.00    +0.000 A 
ATOM      5  C   UNL     1      68.561  48.325 550.708  0.00  0.00    +0.000 A 
ATOM      6  C   UNL     1      69.681  48.209 551.530  0.00  0.00    +0.000 A 
ATOM      7  F   UNL     1      70.804  48.859 551.201  0.00  0.00    +0.000 F 
ATOM      8  C   UNL     1      69.655  47.432 552.681  0.00  0.00    +0.000 A 
ATOM      9  C   UNL     1      68.486  46.758 553.025  0.00  0.00    +0.000 A 
ATOM     10  C   UNL     1      67.351  46.876 552.207  0.00  0.00    +0.000 A 
BRANCH   4  12
ATOM     11  C   UNL     1      66.215  48.599 549.174  0.00  0.00    +0.000 C 
ATOM     12  O   UNL     1      66.241  47.691 550.273  0.00  0.00    +0.000 OA
ENDBRANCH   4  12
ENDBRANCH   1  10
BRANCH   1  13
ATOM     13  N   UNL     1      66.323  45.217 554.104  0.00  0.00    +0.000 N 
ATOM     14  C   UNL     1      65.360  45.000 555.073  0.00  0.00    +0.000 A 
ATOM     15  C   UNL     1      64.284  44.093 555.041  0.00  0.00    +0.000 A 
ATOM     16  C   UNL     1      63.673  44.236 556.267  0.00  0.00    +0.000 A 
ATOM     17  N   UNL     1      64.384  45.199 556.925  0.00  0.00    +0.000 N 
ATOM     18  N   UNL     1      65.433  45.658 556.225  0.00  0.00    +0.000 NA
ATOM     19  H   UNL     1      67.129  45.716 554.489  0.00  0.00    +0.000 HD
BRANCH  17  20
ATOM     20  C   UNL     1      64.008  45.727 558.205  0.00  0.00    +0.000 C 
ATOM     21  C   UNL     1      64.933  45.567 559.417  0.00  0.00    +0.000 C 
ATOM     22  C   UNL     1      63.659  44.835 559.346  0.00  0.00    +0.000 C 
ATOM     23  F   UNL     1      62.629  45.176 560.193  0.00  0.00    +0.000 F 
ATOM     24  F   UNL     1      63.651  43.464 559.235  0.00  0.00    +0.000 F 
ENDBRANCH  17  20
ENDBRANCH   1  13
TORSDOF 4
ENDMDL
MODEL 5
REMARK VINA RESULT:      -5.4      1.794      2.770
REMARK  Name = 
REMARK  5 active torsions:
REMARK  status: ('A' for Active; 'I' for Inactive)
REMARK    1  A    between atoms: C_1  and  O_2
REMARK    2  A    between atoms: O_2  and  C_3
REMARK    3  A    between atoms: C_9  and  S_10
REMARK    4  A    between atoms: S_10  and  N_13
REMARK    5  A    between atoms: N_17  and  C_18
REMARK                            x       y       z     vdW  Elec       q    Type
REMARK                         _______ _______ _______ _____ _____    ______ ____
ROOT
ATOM      1  S   UNL     1      65.010  46.261 552.333  0.00  0.00    +0.000 S 
ATOM      2  O   UNL     1      64.080  47.213 552.914  0.00  0.00    +0.000 OA
ATOM      3  O   UNL     1      64.554  45.281 551.371  0.00  0.00    +0.000 OA
ENDROOT
BRANCH   1  10
ATOM      4  C   UNL     1      67.224  47.935 552.344  0.00  0.00    +0.000 A 
ATOM      5  C   UNL     1      68.258  48.624 551.700  0.00  0.00    +0.000 A 
ATOM      6  C   UNL     1      68.382  48.557 550.313  0.00  0.00    +0.000 A 
ATOM      7  F   UNL     1      69.380  49.220 549.714  0.00  0.00    +0.000 F 
ATOM      8  C   UNL     1      67.493  47.820 549.541  0.00  0.00    +0.000 A 
ATOM      9  C   UNL     1      66.458  47.128 550.165  0.00  0.00    +0.000 A 
ATOM     10  C   UNL     1      66.329  47.183 551.562  0.00  0.00    +0.000 A 
BRANCH   4  12
ATOM     11  C   UNL     1      68.143  48.165 554.538  0.00  0.00    +0.000 C 
ATOM     12  O   UNL     1      67.010  47.968 553.696  0.00  0.00    +0.000 OA
ENDBRANCH   4  12
ENDBRANCH   1  10
BRANCH   1  13
ATOM     13  N   UNL     1      65.799  45.442 553.586  0.00  0.00    +0.000 N 
ATOM     14  C   UNL     1      65.070  45.135 554.721  0.00  0.00    +0.000 A 
ATOM     15  C   UNL     1      64.062  44.163 554.869  0.00  0.00    +0.000 A 
ATOM     16  C   UNL     1      63.710  44.230 556.199  0.00  0.00    +0.000 A 
ATOM     17  N   UNL     1      64.487  45.215 556.739  0.00  0.00    +0.000 N 
ATOM     18  N   UNL     1      65.342  45.761 555.861  0.00  0.00    +0.000 NA
ATOM     19  H   UNL     1      66.638  45.979 553.819  0.00  0.00    +0.000 HD
BRANCH  17  20
ATOM     20  C   UNL     1      64.354  45.679 558.091  0.00  0.00    +0.000 C 
ATOM     21  C   UNL     1      65.364  45.257 559.163  0.00  0.00    +0.000 C 
ATOM     22  C   UNL     1      63.982  44.757 559.200  0.00  0.00    +0.000 C 
ATOM     23  F   UNL     1      63.128  45.186 560.191  0.00  0.00    +0.000 F 
ATOM     24  F   UNL     1      63.720  43.423 558.994  0.00  0.00    +0.000 F 
ENDBRANCH  17  20
ENDBRANCH   1  13
TORSDOF 4
ENDMDL
MODEL 6
REMARK VINA RESULT:      -5.4      3.256      7.629
REMARK  Name = 
REMARK  5 active torsions:
REMARK  status: ('A' for Active; 'I' for Inactive)
REMARK    1  A    between atoms: C_1  and  O_2
REMARK    2  A    between atoms: O_2  and  C_3
REMARK    3  A    between atoms: C_9  and  S_10
REMARK    4  A    between atoms: S_10  and  N_13
REMARK    5  A    between atoms: N_17  and  C_18
REMARK                            x       y       z     vdW  Elec       q    Type
REMARK                         _______ _______ _______ _____ _____    ______ ____
ROOT
ATOM      1  S   UNL     1      65.132  44.300 557.690  0.00  0.00    +0.000 S 
ATOM      2  O   UNL     1      65.415  45.702 557.441  0.00  0.00    +0.000 OA
ATOM      3  O   UNL     1      66.181  43.406 558.131  0.00  0.00    +0.000 OA
ENDROOT
BRANCH   1  10
ATOM      4  C   UNL     1      62.855  43.188 558.824  0.00  0.00    +0.000 A 
ATOM      5  C   UNL     1      61.858  43.143 559.804  0.00  0.00    +0.000 A 
ATOM      6  C   UNL     1      61.833  44.096 560.820  0.00  0.00    +0.000 A 
ATOM      7  F   UNL     1      60.872  44.034 561.751  0.00  0.00    +0.000 F 
ATOM      8  C   UNL     1      62.781  45.108 560.886  0.00  0.00    +0.000 A 
ATOM      9  C   UNL     1      63.782  45.171 559.919  0.00  0.00    +0.000 A 
ATOM     10  C   UNL     1      63.820  44.210 558.897  0.00  0.00    +0.000 A 
BRANCH   4  12
ATOM     11  C   UNL     1      61.784  41.531 557.477  0.00  0.00    +0.000 C 
ATOM     12  O   UNL     1      62.939  42.312 557.775  0.00  0.00    +0.000 OA
ENDBRANCH   4  12
ENDBRANCH   1  10
BRANCH   1  13
ATOM     13  N   UNL     1      64.423  43.637 556.305  0.00  0.00    +0.000 N 
ATOM     14  C   UNL     1      64.687  44.239 555.088  0.00  0.00    +0.000 A 
ATOM     15  C   UNL     1      65.886  44.217 554.350  0.00  0.00    +0.000 A 
ATOM     16  C   UNL     1      65.597  44.917 553.199  0.00  0.00    +0.000 A 
ATOM     17  N   UNL     1      64.297  45.317 553.326  0.00  0.00    +0.000 N 
ATOM     18  N   UNL     1      63.716  44.891 554.457  0.00  0.00    +0.000 NA
ATOM     19  H   UNL     1      63.416  43.578 556.477  0.00  0.00    +0.000 HD
BRANCH  17  20
ATOM     20  C   UNL     1      63.635  46.173 552.383  0.00  0.00    +0.000 C 
ATOM     21  C   UNL     1      62.298  45.759 551.760  0.00  0.00    +0.000 C 
ATOM     22  C   UNL     1      63.520  45.807 550.943  0.00  0.00    +0.000 C 
ATOM     23  F   UNL     1      63.657  46.777 549.976  0.00  0.00    +0.000 F 
ATOM     24  F   UNL     1      64.059  44.650 550.431  0.00  0.00    +0.000 F 
ENDBRANCH  17  20
ENDBRANCH   1  13
TORSDOF 4
ENDMDL
MODEL 7
REMARK VINA RESULT:      -5.0      2.587      3.212
REMARK  Name = 
REMARK  5 active torsions:
REMARK  status: ('A' for Active; 'I' for Inactive)
REMARK    1  A    between atoms: C_1  and  O_2
REMARK    2  A    between atoms: O_2  and  C_3
REMARK    3  A    between atoms: C_9  and  S_10
REMARK    4  A    between atoms: S_10  and  N_13
REMARK    5  A    between atoms: N_17  and  C_18
REMARK                            x       y       z     vdW  Elec       q    Type
REMARK                         _______ _______ _______ _____ _____    ______ ____
ROOT
ATOM      1  S   UNL     1      67.770  46.699 552.828  0.00  0.00    +0.000 S 
ATOM      2  O   UNL     1      69.132  46.624 552.335  0.00  0.00    +0.000 OA
ATOM      3  O   UNL     1      67.472  47.393 554.064  0.00  0.00    +0.000 OA
ENDROOT
BRANCH   1  10
ATOM      4  C   UNL     1      66.564  46.772 550.329  0.00  0.00    +0.000 A 
ATOM      5  C   UNL     1      65.748  47.377 549.367  0.00  0.00    +0.000 A 
ATOM      6  C   UNL     1      65.156  48.612 549.629  0.00  0.00    +0.000 A 
ATOM      7  F   UNL     1      64.376  49.174 548.697  0.00  0.00    +0.000 F 
ATOM      8  C   UNL     1      65.361  49.270 550.834  0.00  0.00    +0.000 A 
ATOM      9  C   UNL     1      66.169  48.684 551.805  0.00  0.00    +0.000 A 
ATOM     10  C   UNL     1      66.763  47.437 551.553  0.00  0.00    +0.000 A 
BRANCH   4  12
ATOM     11  C   UNL     1      66.702  44.707 549.136  0.00  0.00    +0.000 C 
ATOM     12  O   UNL     1      67.207  45.577 550.146  0.00  0.00    +0.000 OA
ENDBRANCH   4  12
ENDBRANCH   1  10
BRANCH   1  13
ATOM     13  N   UNL     1      67.149  45.129 552.943  0.00  0.00    +0.000 N 
ATOM     14  C   UNL     1      65.947  44.953 553.605  0.00  0.00    +0.000 A 
ATOM     15  C   UNL     1      64.657  45.314 553.174  0.00  0.00    +0.000 A 
ATOM     16  C   UNL     1      63.820  44.868 554.173  0.00  0.00    +0.000 A 
ATOM     17  N   UNL     1      64.635  44.308 555.115  0.00  0.00    +0.000 N 
ATOM     18  N   UNL     1      65.933  44.325 554.776  0.00  0.00    +0.000 NA
ATOM     19  H   UNL     1      67.883  44.541 553.346  0.00  0.00    +0.000 HD
BRANCH  17  20
ATOM     20  C   UNL     1      64.165  43.816 556.380  0.00  0.00    +0.000 C 
ATOM     21  C   UNL     1      63.412  44.739 557.343  0.00  0.00    +0.000 C 
ATOM     22  C   UNL     1      64.767  44.268 557.665  0.00  0.00    +0.000 C 
ATOM     23  F   UNL     1      64.951  43.367 558.690  0.00  0.00    +0.000 F 
ATOM     24  F   UNL     1      65.816  45.154 557.717  0.00  0.00    +0.000 F 
ENDBRANCH  17  20
ENDBRANCH   1  13
TORSDOF 4
ENDMDL
MODEL 8
REMARK VINA RESULT:      -4.9      4.267      5.689
REMARK  Name = 
REMARK  5 active torsions:
REMARK  status: ('A' for Active; 'I' for Inactive)
REMARK    1  A    between atoms: C_1  and  O_2
REMARK    2  A    between atoms: O_2  and  C_3
REMARK    3  A    between atoms: C_9  and  S_10
REMARK    4  A    between atoms: S_10  and  N_13
REMARK    5  A    between atoms: N_17  and  C_18
REMARK                            x       y       z     vdW  Elec       q    Type
REMARK                         _______ _______ _______ _____ _____    ______ ____
ROOT
ATOM      1  S   UNL     1      68.128  50.460 552.773  0.00  0.00    +0.000 S 
ATOM      2  O   UNL     1      68.263  51.802 553.307  0.00  0.00    +0.000 OA
ATOM      3  O   UNL     1      66.932  50.070 552.055  0.00  0.00    +0.000 OA
ENDROOT
BRANCH   1  10
ATOM      4  C   UNL     1      70.818  50.065 552.214  0.00  0.00    +0.000 A 
ATOM      5  C   UNL     1      71.872  49.803 551.332  0.00  0.00    +0.000 A 
ATOM      6  C   UNL     1      71.621  49.642 549.971  0.00  0.00    +0.000 A 
ATOM      7  F   UNL     1      72.643  49.389 549.143  0.00  0.00    +0.000 F 
ATOM      8  C   UNL     1      70.335  49.740 549.456  0.00  0.00    +0.000 A 
ATOM      9  C   UNL     1      69.272  50.001 550.318  0.00  0.00    +0.000 A 
ATOM     10  C   UNL     1      69.515  50.156 551.692  0.00  0.00    +0.000 A 
BRANCH   4  12
ATOM     11  C   UNL     1      71.666  51.443 553.971  0.00  0.00    +0.000 C 
ATOM     12  O   UNL     1      70.976  50.266 553.559  0.00  0.00    +0.000 OA
ENDBRANCH   4  12
ENDBRANCH   1  10
BRANCH   1  13
ATOM     13  N   UNL     1      68.373  49.351 554.028  0.00  0.00    +0.000 N 
ATOM     14  C   UNL     1      67.720  48.133 553.955  0.00  0.00    +0.000 A 
ATOM     15  C   UNL     1      67.991  47.053 553.095  0.00  0.00    +0.000 A 
ATOM     16  C   UNL     1      67.095  46.076 553.471  0.00  0.00    +0.000 A 
ATOM     17  N   UNL     1      66.357  46.623 554.482  0.00  0.00    +0.000 N 
ATOM     18  N   UNL     1      66.740  47.866 554.811  0.00  0.00    +0.000 NA
ATOM     19  H   UNL     1      68.160  49.833 554.905  0.00  0.00    +0.000 HD
BRANCH  17  20
ATOM     20  C   UNL     1      65.231  45.968 555.087  0.00  0.00    +0.000 C 
ATOM     21  C   UNL     1      65.294  45.494 556.542  0.00  0.00    +0.000 C 
ATOM     22  C   UNL     1      65.268  44.521 555.441  0.00  0.00    +0.000 C 
ATOM     23  F   UNL     1      64.151  43.739 555.247  0.00  0.00    +0.000 F 
ATOM     24  F   UNL     1      66.362  43.727 555.189  0.00  0.00    +0.000 F 
ENDBRANCH  17  20
ENDBRANCH   1  13
TORSDOF 4
ENDMDL
MODEL 9
REMARK VINA RESULT:      -4.7      3.760      6.851
REMARK  Name = 
REMARK  5 active torsions:
REMARK  status: ('A' for Active; 'I' for Inactive)
REMARK    1  A    between atoms: C_1  and  O_2
REMARK    2  A    between atoms: O_2  and  C_3
REMARK    3  A    between atoms: C_9  and  S_10
REMARK    4  A    between atoms: S_10  and  N_13
REMARK    5  A    between atoms: N_17  and  C_18
REMARK                            x       y       z     vdW  Elec       q    Type
REMARK                         _______ _______ _______ _____ _____    ______ ____
ROOT
ATOM      1  S   UNL     1      66.558  46.272 553.933  0.00  0.00    +0.000 S 
ATOM      2  O   UNL     1      66.528  46.729 555.309  0.00  0.00    +0.000 OA
ATOM      3  O   UNL     1      67.424  45.182 553.538  0.00  0.00    +0.000 OA
ENDROOT
BRANCH   1  10
ATOM      4  C   UNL     1      64.219  44.794 554.155  0.00  0.00    +0.000 A 
ATOM      5  C   UNL     1      62.908  44.487 553.772  0.00  0.00    +0.000 A 
ATOM      6  C   UNL     1      62.302  45.189 552.732  0.00  0.00    +0.000 A 
ATOM      7  F   UNL     1      61.046  44.884 552.382  0.00  0.00    +0.000 F 
ATOM      8  C   UNL     1      62.974  46.195 552.050  0.00  0.00    +0.000 A 
ATOM      9  C   UNL     1      64.279  46.515 552.417  0.00  0.00    +0.000 A 
ATOM     10  C   UNL     1      64.895  45.819 553.469  0.00  0.00    +0.000 A 
BRANCH   4  12
ATOM     11  C   UNL     1      64.323  44.129 556.447  0.00  0.00    +0.000 C 
ATOM     12  O   UNL     1      64.901  44.137 555.144  0.00  0.00    +0.000 OA
ENDBRANCH   4  12
ENDBRANCH   1  10
BRANCH   1  13
ATOM     13  N   UNL     1      66.886  47.595 552.929  0.00  0.00    +0.000 N 
ATOM     14  C   UNL     1      68.119  48.210 553.049  0.00  0.00    +0.000 A 
ATOM     15  C   UNL     1      69.375  47.727 552.637  0.00  0.00    +0.000 A 
ATOM     16  C   UNL     1      70.254  48.744 552.937  0.00  0.00    +0.000 A 
ATOM     17  N   UNL     1      69.498  49.729 553.507  0.00  0.00    +0.000 N 
ATOM     18  N   UNL     1      68.190  49.434 553.561  0.00  0.00    +0.000 NA
ATOM     19  H   UNL     1      66.124  48.266 553.053  0.00  0.00    +0.000 HD
BRANCH  17  20
ATOM     20  C   UNL     1      70.051  50.930 554.067  0.00  0.00    +0.000 C 
ATOM     21  C   UNL     1      71.247  50.866 555.023  0.00  0.00    +0.000 C 
ATOM     22  C   UNL     1      69.916  51.250 555.516  0.00  0.00    +0.000 C 
ATOM     23  F   UNL     1      69.684  52.549 555.912  0.00  0.00    +0.000 F 
ATOM     24  F   UNL     1      69.237  50.436 556.391  0.00  0.00    +0.000 F 
ENDBRANCH  17  20
ENDBRANCH   1  13
TORSDOF 4
ENDMDL
MODEL 10
REMARK VINA RESULT:      -4.7      7.536     11.445
REMARK  Name = 
REMARK  5 active torsions:
REMARK  status: ('A' for Active; 'I' for Inactive)
REMARK    1  A    between atoms: C_1  and  O_2
REMARK    2  A    between atoms: O_2  and  C_3
REMARK    3  A    between atoms: C_9  and  S_10
REMARK    4  A    between atoms: S_10  and  N_13
REMARK    5  A    between atoms: N_17  and  C_18
REMARK                            x       y       z     vdW  Elec       q    Type
REMARK                         _______ _______ _______ _____ _____    ______ ____
ROOT
ATOM      1  S   UNL     1      70.624  50.229 550.985  0.00  0.00    +0.000 S 
ATOM      2  O   UNL     1      70.811  49.560 549.712  0.00  0.00    +0.000 OA
ATOM      3  O   UNL     1      69.936  51.501 551.055  0.00  0.00    +0.000 OA
ENDROOT
BRANCH   1  10
ATOM      4  C   UNL     1      69.600  49.423 553.437  0.00  0.00    +0.000 A 
ATOM      5  C   UNL     1      68.903  48.524 554.250  0.00  0.00    +0.000 A 
ATOM      6  C   UNL     1      68.395  47.343 553.710  0.00  0.00    +0.000 A 
ATOM      7  F   UNL     1      67.728  46.496 554.504  0.00  0.00    +0.000 F 
ATOM      8  C   UNL     1      68.569  47.028 552.369  0.00  0.00    +0.000 A 
ATOM      9  C   UNL     1      69.261  47.910 551.543  0.00  0.00    +0.000 A 
ATOM     10  C   UNL     1      69.769  49.106 552.076  0.00  0.00    +0.000 A 
BRANCH   4  12
ATOM     11  C   UNL     1      70.219  50.787 555.298  0.00  0.00    +0.000 C 
ATOM     12  O   UNL     1      70.157  50.590 553.888  0.00  0.00    +0.000 OA
ENDBRANCH   4  12
ENDBRANCH   1  10
BRANCH   1  13
ATOM     13  N   UNL     1      72.134  50.407 551.730  0.00  0.00    +0.000 N 
ATOM     14  C   UNL     1      72.948  51.442 551.307  0.00  0.00    +0.000 A 
ATOM     15  C   UNL     1      72.793  52.821 551.542  0.00  0.00    +0.000 A 
ATOM     16  C   UNL     1      73.897  53.400 550.957  0.00  0.00    +0.000 A 
ATOM     17  N   UNL     1      74.608  52.369 550.410  0.00  0.00    +0.000 N 
ATOM     18  N   UNL     1      74.061  51.165 550.635  0.00  0.00    +0.000 NA
ATOM     19  H   UNL     1      72.615  49.507 551.661  0.00  0.00    +0.000 HD
BRANCH  17  20
ATOM     20  C   UNL     1      75.783  52.554 549.606  0.00  0.00    +0.000 C 
ATOM     21  C   UNL     1      76.919  51.527 549.639  0.00  0.00    +0.000 C 
ATOM     22  C   UNL     1      77.106  52.866 550.217  0.00  0.00    +0.000 C 
ATOM     23  F   UNL     1      77.950  53.763 549.603  0.00  0.00    +0.000 F 
ATOM     24  F   UNL     1      77.274  53.020 551.573  0.00  0.00    +0.000 F 
ENDBRANCH  17  20
ENDBRANCH   1  13
TORSDOF 4
ENDMDL
