REMARK  Name = 
REMARK  10 active torsions:
REMARK  status: ('A' for Active; 'I' for Inactive)
REMARK    1  A    between atoms: C_1  and  N_2
REMARK    2  A    between atoms: N_2  and  C_3
REMARK    3  A    between atoms: N_2  and  C_17
REMARK    4  A    between atoms: C_3  and  C_4
REMARK    5  A    between atoms: C_4  and  N_5
REMARK    6  A    between atoms: N_5  and  C_6
REMARK    7  A    between atoms: C_6  and  C_7
REMARK    8  A    between atoms: C_17  and  C_18
REMARK    9  A    between atoms: C_18  and  S_19
REMARK   10  A    between atoms: S_19  and  C_20
REMARK                            x       y       z     vdW  Elec       q    Type
REMARK                         _______ _______ _______ _____ _____    ______ ____
ROOT
ATOM      1  N   UNL     1       2.937  -1.335   3.566  0.00  0.00    +0.000 NA
ATOM      2  H   UNL     1       3.958  -1.305   3.565  0.00  0.00    +0.000 HD
ENDROOT
BRANCH   1   3
ATOM      3  C   UNL     1       2.404  -0.440   2.531  0.00  0.00    +0.000 C 
BRANCH   3   4
ATOM      4  C   UNL     1       2.802  -0.886   1.103  0.00  0.00    +0.000 C 
BRANCH   4   6
ATOM      5  C   UNL     1       0.797  -0.019   0.031  0.00  0.00    +0.000 C 
ATOM      6  N   UNL     1       2.265  -0.012   0.024  0.00  0.00    +0.000 NA
BRANCH   6   7
ATOM      7  C   UNL     1       2.796  -0.476  -1.285  0.00  0.00    +0.000 C 
BRANCH   7   8
ATOM      8  C   UNL     1       2.441   0.457  -2.441  0.00  0.00    +0.000 C 
BRANCH   8   9
ATOM      9  S   UNL     1       3.096  -0.152  -3.980  0.00  0.00    +0.000 S 
ATOM     10  C   UNL     1       2.482   1.034  -5.152  0.00  0.00    +0.000 C 
ATOM     11  O   UNL     1       4.541  -0.032  -3.946  0.00  0.00    +0.000 OA
ATOM     12  O   UNL     1       2.457  -1.420  -4.273  0.00  0.00    +0.000 OA
ENDBRANCH   8   9
ENDBRANCH   7   8
ENDBRANCH   6   7
ENDBRANCH   4   6
ENDBRANCH   3   4
ENDBRANCH   1   3
BRANCH   1  13
ATOM     13  C   UNL     1       2.485  -0.883   4.890  0.00  0.00    +0.000 C 
BRANCH  13  14
ATOM     14  C   UNL     1       2.990  -1.820   5.941  0.00  0.00    +0.000 A 
ATOM     15  N   UNL     1       4.173  -1.603   6.540  0.00  0.00    +0.000 NA
ATOM     16  N   UNL     1       4.263  -2.599   7.438  0.00  0.00    +0.000 N 
ATOM     17  C   UNL     1       3.188  -3.446   7.453  0.00  0.00    +0.000 A 
ATOM     18  C   UNL     1       2.898  -4.568   8.238  0.00  0.00    +0.000 A 
ATOM     19  C   UNL     1       1.688  -5.225   7.985  0.00  0.00    +0.000 A 
ATOM     20  C   UNL     1       0.823  -4.773   6.989  0.00  0.00    +0.000 A 
ATOM     21 BR   UNL     1      -0.799  -5.698   6.674  0.00  0.00    +0.000 Br
ATOM     22  C   UNL     1       1.127  -3.647   6.216  0.00  0.00    +0.000 A 
ATOM     23  C   UNL     1       2.336  -2.971   6.463  0.00  0.00    +0.000 A 
ATOM     24  H   UNL     1       5.089  -2.642   8.023  0.00  0.00    +0.000 HD
ENDBRANCH  13  14
ENDBRANCH   1  13
TORSDOF 8
