REMARK  Name = 
REMARK  7 active torsions:
REMARK  status: ('A' for Active; 'I' for Inactive)
REMARK    1  A    between atoms: C_1  and  O_2
REMARK    2  A    between atoms: O_2  and  C_3
REMARK    3  A    between atoms: C_9  and  S_10
REMARK    4  A    between atoms: S_10  and  N_13
REMARK    5  A    between atoms: N_17  and  C_18
REMARK    6  A    between atoms: N_21  and  S_22
REMARK    7  A    between atoms: S_22  and  C_23
REMARK                            x       y       z     vdW  Elec       q    Type
REMARK                         _______ _______ _______ _____ _____    ______ ____
ROOT
ATOM      1  N   UNL     1       3.962   0.181  -2.198  0.00  0.00    +0.000 N 
ATOM      2  C   UNL     1       4.143  -0.131  -3.537  0.00  0.00    +0.000 A 
ATOM      3  C   UNL     1       5.382  -0.386  -4.155  0.00  0.00    +0.000 A 
ATOM      4  C   UNL     1       5.085  -0.562  -5.486  0.00  0.00    +0.000 A 
ATOM      5  N   UNL     1       3.736  -0.351  -5.603  0.00  0.00    +0.000 N 
ATOM      6  N   UNL     1       3.148  -0.094  -4.421  0.00  0.00    +0.000 NA
ATOM      7  H   UNL     1       4.752   0.635  -1.742  0.00  0.00    +0.000 HD
ENDROOT
BRANCH   5   8
ATOM      8  C   UNL     1       3.006  -0.253  -6.858  0.00  0.00    +0.000 C 
ATOM      9  C   UNL     1       2.992   1.179  -7.391  0.00  0.00    +0.000 C 
ATOM     10  C   UNL     1       1.635   1.707  -6.973  0.00  0.00    +0.000 C 
ATOM     11  N   UNL     1       0.722   0.552  -7.145  0.00  0.00    +0.000 NA
ATOM     12  C   UNL     1       1.525  -0.672  -6.801  0.00  0.00    +0.000 C 
BRANCH  11  13
ATOM     13  S   UNL     1      -0.171   0.511  -8.587  0.00  0.00    +0.000 S 
ATOM     14  C   UNL     1      -1.584  -0.450  -8.090  0.00  0.00    +0.000 C 
ATOM     15  O   UNL     1      -0.636   1.851  -8.873  0.00  0.00    +0.000 OA
ATOM     16  O   UNL     1       0.600  -0.235  -9.560  0.00  0.00    +0.000 OA
ENDBRANCH  11  13
ENDBRANCH   5   8
BRANCH   1  17
ATOM     17  S   UNL     1       3.423  -1.027  -1.142  0.00  0.00    +0.000 S 
ATOM     18  O   UNL     1       2.218  -1.639  -1.657  0.00  0.00    +0.000 OA
ATOM     19  O   UNL     1       3.456  -0.476   0.199  0.00  0.00    +0.000 OA
BRANCH  17  26
ATOM     20  C   UNL     1       6.041  -1.917  -0.840  0.00  0.00    +0.000 A 
ATOM     21  C   UNL     1       7.013  -2.923  -0.857  0.00  0.00    +0.000 A 
ATOM     22  C   UNL     1       6.675  -4.215  -1.252  0.00  0.00    +0.000 A 
ATOM     23  F   UNL     1       7.621  -5.164  -1.263  0.00  0.00    +0.000 F 
ATOM     24  C   UNL     1       5.382  -4.537  -1.643  0.00  0.00    +0.000 A 
ATOM     25  C   UNL     1       4.399  -3.551  -1.625  0.00  0.00    +0.000 A 
ATOM     26  C   UNL     1       4.728  -2.248  -1.220  0.00  0.00    +0.000 A 
BRANCH  20  28
ATOM     27  C   UNL     1       7.561  -0.328   0.087  0.00  0.00    +0.000 C 
ATOM     28  O   UNL     1       6.303  -0.610  -0.523  0.00  0.00    +0.000 OA
ENDBRANCH  20  28
ENDBRANCH  17  26
ENDBRANCH   1  17
TORSDOF 5
