REMARK  Name = 
REMARK  5 active torsions:
REMARK  status: ('A' for Active; 'I' for Inactive)
REMARK    1  A    between atoms: C_1  and  O_2
REMARK    2  A    between atoms: O_2  and  C_3
REMARK    3  A    between atoms: C_9  and  S_10
REMARK    4  A    between atoms: S_10  and  N_13
REMARK    5  A    between atoms: N_17  and  C_18
REMARK                            x       y       z     vdW  Elec       q    Type
REMARK                         _______ _______ _______ _____ _____    ______ ____
ROOT
ATOM      1  S   UNL     1       4.553  -0.733   1.903  0.00  0.00    +0.000 S 
ATOM      2  O   UNL     1       5.888  -0.173   1.945  0.00  0.00    +0.000 OA
ATOM      3  O   UNL     1       4.086  -1.433   0.722  0.00  0.00    +0.000 OA
ENDROOT
BRANCH   1  10
ATOM      4  C   UNL     1       3.129  -2.389   3.621  0.00  0.00    +0.000 A 
ATOM      5  C   UNL     1       3.058  -3.314   4.669  0.00  0.00    +0.000 A 
ATOM      6  C   UNL     1       4.210  -3.672   5.365  0.00  0.00    +0.000 A 
ATOM      7  F   UNL     1       4.123  -4.559   6.365  0.00  0.00    +0.000 F 
ATOM      8  C   UNL     1       5.446  -3.123   5.047  0.00  0.00    +0.000 A 
ATOM      9  C   UNL     1       5.539  -2.214   3.996  0.00  0.00    +0.000 A 
ATOM     10  C   UNL     1       4.386  -1.861   3.277  0.00  0.00    +0.000 A 
BRANCH   4  12
ATOM     11  C   UNL     1       0.760  -2.199   3.482  0.00  0.00    +0.000 C 
ATOM     12  O   UNL     1       2.042  -1.970   2.901  0.00  0.00    +0.000 OA
ENDBRANCH   4  12
ENDBRANCH   1  10
BRANCH   1  13
ATOM     13  N   UNL     1       3.438   0.493   2.256  0.00  0.00    +0.000 N 
ATOM     14  C   UNL     1       3.682   1.276   3.369  0.00  0.00    +0.000 A 
ATOM     15  C   UNL     1       4.606   2.327   3.505  0.00  0.00    +0.000 A 
ATOM     16  C   UNL     1       4.418   2.792   4.787  0.00  0.00    +0.000 A 
ATOM     17  N   UNL     1       3.453   1.993   5.338  0.00  0.00    +0.000 N 
ATOM     18  N   UNL     1       2.947   1.106   4.462  0.00  0.00    +0.000 NA
ATOM     19  H   UNL     1       2.523   0.045   2.320  0.00  0.00    +0.000 HD
BRANCH  17  20
ATOM     20  C   UNL     1       3.018   2.008   6.729  0.00  0.00    +0.000 C 
ATOM     21  C   UNL     1       3.902   1.120   7.611  0.00  0.00    +0.000 C 
ATOM     22  C   UNL     1       3.433  -0.315   7.436  0.00  0.00    +0.000 C 
ATOM     23  S   UNL     1       1.626  -0.208   7.419  0.00  0.00    +0.000 S 
ATOM     24  C   UNL     1       1.571   1.555   6.951  0.00  0.00    +0.000 C 
ENDBRANCH  17  20
ENDBRANCH   1  13
TORSDOF 4
