
 OpenBabel01102510233D

 44 44  0  0  0  0  0  0  0  0999 V2000
    0.0207   -2.0440    0.6880 C   0  0  0  0  0  0  0  0  0  0  0  0
    1.4182   -2.2870    0.5664 O   0  0  0  0  0  0  0  0  0  0  0  0
    2.1157   -1.3893   -0.1923 C   0  0  0  0  0  0  0  0  0  0  0  0
    3.2512   -0.9022    0.4452 C   0  0  0  0  0  0  0  0  0  0  0  0
    4.0159    0.1437   -0.1023 C   0  0  0  0  0  0  0  0  0  0  0  0
    4.8175    0.9018    0.9187 C   0  0  0  0  0  0  0  0  0  0  0  0
    5.8336    1.8624    0.4906 N   0  0  0  0  0  0  0  0  0  0  0  0
    6.3017    2.4979    1.7449 C   0  0  0  0  0  0  0  0  0  0  0  0
    7.4220    3.5288    1.5611 C   0  0  0  0  0  0  0  0  0  0  0  0
    7.7688    4.2283    2.8246 N   0  0  0  0  0  0  0  0  0  0  0  0
    8.2343    3.2818    3.8518 C   0  0  0  0  0  0  0  0  0  0  0  0
    8.8251    5.2397    2.6000 C   0  0  0  0  0  0  0  0  0  0  0  0
    8.3428    6.4217    1.7700 C   0  0  0  0  0  0  0  0  0  0  0  0
    9.6675    7.5852    1.5306 S   0  0  0  0  0  0  0  0  0  0  0  0
    8.9220    8.7964    0.4688 C   0  0  0  0  0  0  0  0  0  0  0  0
    9.9567    8.2210    2.7975 O   0  0  0  0  0  0  0  0  0  0  0  0
   10.7121    6.9234    0.7675 O   0  0  0  0  0  0  0  0  0  0  0  0
    3.7666    0.5456   -1.4126 C   0  0  0  0  0  0  0  0  0  0  0  0
    2.6833   -0.0138   -2.1039 C   0  0  0  0  0  0  0  0  0  0  0  0
    1.8281   -0.9395   -1.4814 C   0  0  0  0  0  0  0  0  0  0  0  0
    0.4503   -1.4681   -2.3761 Cl  0  0  0  0  0  0  0  0  0  0  0  0
   -0.2690   -2.2259    1.7290 H   0  0  0  0  0  0  0  0  0  0  0  0
   -0.5102   -2.7682    0.0659 H   0  0  0  0  0  0  0  0  0  0  0  0
   -0.2781   -1.0189    0.4413 H   0  0  0  0  0  0  0  0  0  0  0  0
    3.4830   -1.2657    1.4461 H   0  0  0  0  0  0  0  0  0  0  0  0
    5.2890    0.1716    1.5881 H   0  0  0  0  0  0  0  0  0  0  0  0
    4.0571    1.4489    1.4949 H   0  0  0  0  0  0  0  0  0  0  0  0
    5.3971    2.5753   -0.0917 H   0  0  0  0  0  0  0  0  0  0  0  0
    6.6585    1.7042    2.4109 H   0  0  0  0  0  0  0  0  0  0  0  0
    5.4540    2.9952    2.2373 H   0  0  0  0  0  0  0  0  0  0  0  0
    7.0549    4.2588    0.8323 H   0  0  0  0  0  0  0  0  0  0  0  0
    8.3054    3.0440    1.1283 H   0  0  0  0  0  0  0  0  0  0  0  0
    7.4249    2.6237    4.1840 H   0  0  0  0  0  0  0  0  0  0  0  0
    8.5606    3.8117    4.7544 H   0  0  0  0  0  0  0  0  0  0  0  0
    9.0673    2.6655    3.4952 H   0  0  0  0  0  0  0  0  0  0  0  0
    9.7063    4.7729    2.1420 H   0  0  0  0  0  0  0  0  0  0  0  0
    9.1523    5.6340    3.5714 H   0  0  0  0  0  0  0  0  0  0  0  0
    7.5218    6.9479    2.2677 H   0  0  0  0  0  0  0  0  0  0  0  0
    8.0235    6.1201    0.7694 H   0  0  0  0  0  0  0  0  0  0  0  0
    8.0987    9.2733    1.0034 H   0  0  0  0  0  0  0  0  0  0  0  0
    8.5604    8.2986   -0.4332 H   0  0  0  0  0  0  0  0  0  0  0  0
    9.6822    9.5347    0.2079 H   0  0  0  0  0  0  0  0  0  0  0  0
    4.3644    1.3176   -1.8904 H   0  0  0  0  0  0  0  0  0  0  0  0
    2.4763    0.3136   -3.1208 H   0  0  0  0  0  0  0  0  0  0  0  0
  1  2  1  0  0  0  0
  1 22  1  0  0  0  0
  1 23  1  0  0  0  0
  1 24  1  0  0  0  0
  2  3  1  0  0  0  0
  3  4  1  0  0  0  0
  3 20  2  0  0  0  0
  4  5  2  0  0  0  0
  4 25  1  0  0  0  0
  5  6  1  0  0  0  0
  5 18  1  0  0  0  0
  6  7  1  0  0  0  0
  6 26  1  0  0  0  0
  6 27  1  0  0  0  0
  7  8  1  0  0  0  0
  7 28  1  0  0  0  0
  8  9  1  0  0  0  0
  8 29  1  0  0  0  0
  8 30  1  0  0  0  0
  9 10  1  0  0  0  0
  9 31  1  0  0  0  0
  9 32  1  0  0  0  0
 10 11  1  0  0  0  0
 10 12  1  0  0  0  0
 11 33  1  0  0  0  0
 11 34  1  0  0  0  0
 11 35  1  0  0  0  0
 12 13  1  0  0  0  0
 12 36  1  0  0  0  0
 12 37  1  0  0  0  0
 13 14  1  0  0  0  0
 13 38  1  0  0  0  0
 13 39  1  0  0  0  0
 14 15  1  0  0  0  0
 14 16  2  0  0  0  0
 14 17  2  0  0  0  0
 15 40  1  0  0  0  0
 15 41  1  0  0  0  0
 15 42  1  0  0  0  0
 18 19  2  0  0  0  0
 18 43  1  0  0  0  0
 19 20  1  0  0  0  0
 19 44  1  0  0  0  0
 20 21  1  0  0  0  0
M  END
