
 OpenBabel01102510233D

 40 40  0  0  0  0  0  0  0  0999 V2000
    0.9224   -0.0456   -0.0258 C   0  0  0  0  0  0  0  0  0  0  0  0
    2.3847   -0.0483   -0.0246 N   0  0  0  0  0  0  0  0  0  0  0  0
    2.8683   -0.0721    1.3599 C   0  0  0  0  0  0  0  0  0  0  0  0
    2.3755    1.1456    2.1150 C   0  0  0  0  0  0  0  0  0  0  0  0
    2.8601    1.1182    3.4995 N   0  0  0  0  0  0  0  0  0  0  0  0
    2.3971    2.3019    4.2812 C   0  0  0  0  0  0  0  0  0  0  0  0
    3.1120    3.8200    3.3476 C   0  0  0  0  0  0  0  0  0  0  0  0
    4.8256    4.6378    2.0235 C   0  0  0  0  0  0  0  0  0  0  0  0
    5.1178    7.0425    2.0785 C   0  0  0  0  0  0  0  0  0  0  0  0
    6.0607    6.1348    2.7990 Cl  0  0  0  0  0  0  0  0  0  0  0  0
    3.9346    6.2331    1.9669 C   0  0  0  0  0  0  0  0  0  0  0  0
    3.5482    5.1269    3.0162 C   0  0  0  0  0  0  0  0  0  0  0  0
    3.5482    5.1269    3.0162 Br  0  0  0  0  0  0  0  0  0  0  0  0
    2.6733    5.8532    3.0724 C   0  0  0  0  0  0  0  0  0  0  0  0
    2.8765   -1.2299   -0.7390 C   0  0  0  0  0  0  0  0  0  0  0  0
    2.3877   -1.2216   -2.1694 C   0  0  0  0  0  0  0  0  0  0  0  0
    2.9944   -2.6878   -3.0749 S   0  0  0  0  0  0  0  0  0  0  0  0
    2.3442   -2.5692   -4.7798 C   0  0  0  0  0  0  0  0  0  0  0  0
    4.4698   -2.6487   -3.1176 O   0  0  0  0  0  0  0  0  0  0  0  0
    2.4607   -3.9092   -2.4395 O   0  0  0  0  0  0  0  0  0  0  0  0
    0.5540    0.8245    0.4951 H   0  0  0  0  0  0  0  0  0  0  0  0
    0.5514   -0.9314    0.4653 H   0  0  0  0  0  0  0  0  0  0  0  0
    0.5552   -0.0204   -1.0378 H   0  0  0  0  0  0  0  0  0  0  0  0
    3.9492   -0.0740    1.3673 H   0  0  0  0  0  0  0  0  0  0  0  0
    2.5179   -0.9686    1.8515 H   0  0  0  0  0  0  0  0  0  0  0  0
    1.2944    1.1498    2.1121 H   0  0  0  0  0  0  0  0  0  0  0  0
    2.7269    2.0377    1.6174 H   0  0  0  0  0  0  0  0  0  0  0  0
    3.8785    1.1139    3.4921 H   0  0  0  0  0  0  0  0  0  0  0  0
    2.6945    2.1236    5.3254 H   0  0  0  0  0  0  0  0  0  0  0  0
    1.2945    2.2689    4.2715 H   0  0  0  0  0  0  0  0  0  0  0  0
    3.1864    4.8480    1.6913 H   0  0  0  0  0  0  0  0  0  0  0  0
    4.3309    7.3179    1.6990 H   0  0  0  0  0  0  0  0  0  0  0  0
    2.7044    7.1929    1.9771 H   0  0  0  0  0  0  0  0  0  0  0  0
    2.5220   -2.1228   -0.2448 H   0  0  0  0  0  0  0  0  0  0  0  0
    3.9573   -1.2337   -0.7293 H   0  0  0  0  0  0  0  0  0  0  0  0
    2.7243   -0.3209   -2.6632 H   0  0  0  0  0  0  0  0  0  0  0  0
    1.3055   -1.2359   -2.1793 H   0  0  0  0  0  0  0  0  0  0  0  0
    2.6981   -1.6691   -5.2556 H   0  0  0  0  0  0  0  0  0  0  0  0
    1.2665   -2.5672   -4.7720 H   0  0  0  0  0  0  0  0  0  0  0  0
    2.6918   -3.4238   -5.3408 H   0  0  0  0  0  0  0  0  0  0  0  0
  1  2  1  0  0  0  0
  1 21  1  0  0  0  0
  1 22  1  0  0  0  0
  1 23  1  0  0  0  0
  2  3  1  0  0  0  0
  2 15  1  0  0  0  0
  3  4  1  0  0  0  0
  3 24  1  0  0  0  0
  3 25  1  0  0  0  0
  4  5  1  0  0  0  0
  4 26  1  0  0  0  0
  4 27  1  0  0  0  0
  5  6  1  0  0  0  0
  5 28  1  0  0  0  0
  6  7  1  0  0  0  0
  6 29  1  0  0  0  0
  6 30  1  0  0  0  0
  7  8  1  0  0  0  0
  7 14  2  0  0  0  0
  8  9  2  0  0  0  0
  8 31  1  0  0  0  0
  9 10  1  0  0  0  0
  9 11  1  0  0  0  0
 11 12  2  0  0  0  0
 11 32  1  0  0  0  0
 12 13  1  0  0  0  0
 12 14  1  0  0  0  0
 14 33  1  0  0  0  0
 15 16  1  0  0  0  0
 15 34  1  0  0  0  0
 15 35  1  0  0  0  0
 16 17  1  0  0  0  0
 16 36  1  0  0  0  0
 16 37  1  0  0  0  0
 17 18  1  0  0  0  0
 17 19  2  0  0  0  0
 17 20  2  0  0  0  0
 18 38  1  0  0  0  0
 18 39  1  0  0  0  0
 18 40  1  0  0  0  0
M  END
