REMARK  Name = 
REMARK  14 active torsions:
REMARK  status: ('A' for Active; 'I' for Inactive)
REMARK    1  A    between atoms: C_1  and  N_2
REMARK    2  A    between atoms: N_2  and  C_3
REMARK    3  A    between atoms: N_2  and  C_31
REMARK    4  A    between atoms: C_3  and  C_4
REMARK    5  A    between atoms: C_4  and  N_5
REMARK    6  A    between atoms: N_5  and  C_6
REMARK    7  A    between atoms: C_6  and  C_7
REMARK    8  A    between atoms: C_10  and  C_11
REMARK    9  A    between atoms: C_18  and  C_19
REMARK   10  A    between atoms: N_24  and  C_25
REMARK   11  A    between atoms: C_28  and  C_29
REMARK   12  A    between atoms: C_31  and  C_32
REMARK   13  A    between atoms: C_32  and  S_33
REMARK   14  A    between atoms: S_33  and  C_34
REMARK                            x       y       z     vdW  Elec       q    Type
REMARK                         _______ _______ _______ _____ _____    ______ ____
ROOT
ATOM      1  C   UNL     1       2.726  -1.947   5.946  0.00  0.00    +0.000 A 
ATOM      2  N   UNL     1       2.470  -3.272   5.749  0.00  0.00    +0.000 NA
ATOM      3  C   UNL     1       2.832  -4.104   6.757  0.00  0.00    +0.000 A 
ATOM      4  C   UNL     1       2.680  -5.515   6.843  0.00  0.00    +0.000 A 
ATOM      5  C   UNL     1       3.175  -5.881   8.086  0.00  0.00    +0.000 A 
ATOM      6  N   UNL     1       3.631  -4.761   8.724  0.00  0.00    +0.000 N 
ATOM      7  C   UNL     1       4.195  -4.739  10.055  0.00  0.00    +0.000 C 
ATOM      8  C   UNL     1       3.453  -3.660   7.920  0.00  0.00    +0.000 A 
ATOM      9  C   UNL     1       3.774  -2.314   8.090  0.00  0.00    +0.000 A 
ATOM     10  C   UNL     1       3.396  -1.426   7.069  0.00  0.00    +0.000 A 
ENDROOT
BRANCH   4  11
ATOM     11  C   UNL     1       2.123  -6.458   5.874  0.00  0.00    +0.000 C 
ATOM     12  O   UNL     1       1.980  -7.638   6.179  0.00  0.00    +0.000 OA
ATOM     13  N   UNL     1       1.865  -5.902   4.636  0.00  0.00    +0.000 N 
ATOM     14  C   UNL     1       1.300  -6.592   3.559  0.00  0.00    +0.000 A 
ATOM     15  C   UNL     1       1.338  -6.003   2.304  0.00  0.00    +0.000 A 
ATOM     16  C   UNL     1       0.799  -6.701   1.217  0.00  0.00    +0.000 A 
ATOM     17 BR   UNL     1       0.926  -5.899  -0.501  0.00  0.00    +0.000 Br
ATOM     18  C   UNL     1       0.207  -7.948   1.404  0.00  0.00    +0.000 A 
ATOM     19  C   UNL     1       0.194  -8.442   2.693  0.00  0.00    +0.000 A 
ATOM     20  N   UNL     1       0.729  -7.794   3.752  0.00  0.00    +0.000 NA
ATOM     21  H   UNL     1       2.138  -4.934   4.505  0.00  0.00    +0.000 HD
BRANCH  18  22
ATOM     22  C   UNL     1      -0.370  -8.725   0.356  0.00  0.00    +0.000 C 
ATOM     23  N   UNL     1      -0.847  -9.380  -0.476  0.00  0.00    +0.000 NA
ENDBRANCH  18  22
ENDBRANCH   4  11
BRANCH  10  24
ATOM     24  C   UNL     1       3.782   0.025   7.202  0.00  0.00    +0.000 C 
ATOM     25 CL   UNL     1       3.067   0.757   8.661  0.00  0.00    +0.000 Cl
ENDBRANCH  10  24
BRANCH   1  26
ATOM     26  C   UNL     1       2.244  -1.054   4.808  0.00  0.00    +0.000 C 
BRANCH  26  27
ATOM     27  N   UNL     1       3.308  -0.381   4.042  0.00  0.00    +0.000 NA
ATOM     28  H   UNL     1       2.869   0.162   3.298  0.00  0.00    +0.000 HD
BRANCH  27  29
ATOM     29  C   UNL     1       4.231  -1.353   3.436  0.00  0.00    +0.000 C 
BRANCH  29  30
ATOM     30  C   UNL     1       5.361  -0.646   2.654  0.00  0.00    +0.000 C 
BRANCH  30  32
ATOM     31  C   UNL     1       7.029  -2.348   3.132  0.00  0.00    +0.000 C 
ATOM     32  N   UNL     1       6.368  -1.571   2.074  0.00  0.00    +0.000 NA
BRANCH  32  33
ATOM     33  C   UNL     1       7.354  -0.778   1.297  0.00  0.00    +0.000 C 
BRANCH  33  34
ATOM     34  C   UNL     1       8.343  -1.644   0.524  0.00  0.00    +0.000 C 
BRANCH  34  35
ATOM     35  S   UNL     1       9.498  -0.639  -0.382  0.00  0.00    +0.000 S 
ATOM     36  C   UNL     1      10.570  -1.856  -1.107  0.00  0.00    +0.000 C 
ATOM     37  O   UNL     1       8.786   0.024  -1.457  0.00  0.00    +0.000 OA
ATOM     38  O   UNL     1      10.282   0.118   0.575  0.00  0.00    +0.000 OA
ENDBRANCH  34  35
ENDBRANCH  33  34
ENDBRANCH  32  33
ENDBRANCH  30  32
ENDBRANCH  29  30
ENDBRANCH  27  29
ENDBRANCH  26  27
ENDBRANCH   1  26
TORSDOF 11
