
 OpenBabel01102510233D

 46 47  0  0  0  0  0  0  0  0999 V2000
    0.7731   -0.0545    0.0180 C   0  0  0  0  0  0  0  0  0  0  0  0
    2.2414   -0.0355    0.0091 N   0  0  0  0  0  0  0  0  0  0  0  0
    2.7870   -0.8870    1.1011 C   0  0  0  0  0  0  0  0  0  0  0  0
    2.3883   -0.4287    2.5245 C   0  0  0  0  0  0  0  0  0  0  0  0
    2.9583   -1.2934    3.5686 N   0  0  0  0  0  0  0  0  0  0  0  0
    2.4762   -0.8659    4.8802 C   0  0  0  0  0  0  0  0  0  0  0  0
    3.0133   -1.7478    5.9565 C   0  0  0  0  0  0  0  0  0  0  0  0
    3.8333   -1.4130    7.0203 C   0  0  0  0  0  0  0  0  0  0  0  0
    3.9834   -2.5550    7.8343 C   0  0  0  0  0  0  0  0  0  0  0  0
    4.6688   -2.6764    8.9971 N   0  0  0  0  0  0  0  0  0  0  0  0
    4.6112   -3.8993    9.5615 C   0  0  0  0  0  0  0  0  0  0  0  0
    3.9309   -4.9929    9.0476 C   0  0  0  0  0  0  0  0  0  0  0  0
    3.2338   -4.8595    7.8494 C   0  0  0  0  0  0  0  0  0  0  0  0
    3.2688   -3.5969    7.2455 C   0  0  0  0  0  0  0  0  0  0  0  0
    2.6999   -3.0900    6.0933 N   0  0  0  0  0  0  0  0  0  0  0  0
    1.8805   -3.8437    5.1668 C   0  0  0  0  0  0  0  0  0  0  0  0
    2.7739   -0.5169   -1.2923 C   0  0  0  0  0  0  0  0  0  0  0  0
    2.4295    0.4018   -2.4625 C   0  0  0  0  0  0  0  0  0  0  0  0
    3.0897   -0.2385   -3.9883 S   0  0  0  0  0  0  0  0  0  0  0  0
    2.4902    0.9291   -5.1866 C   0  0  0  0  0  0  0  0  0  0  0  0
    4.5339   -0.1284   -3.9483 O   0  0  0  0  0  0  0  0  0  0  0  0
    2.4432   -1.5084   -4.2609 O   0  0  0  0  0  0  0  0  0  0  0  0
    0.3748    0.3754    0.9415 H   0  0  0  0  0  0  0  0  0  0  0  0
    0.3736   -1.0676   -0.1005 H   0  0  0  0  0  0  0  0  0  0  0  0
    0.3575    0.5765   -0.7726 H   0  0  0  0  0  0  0  0  0  0  0  0
    3.8837   -0.8647    1.0449 H   0  0  0  0  0  0  0  0  0  0  0  0
    2.4792   -1.9313    0.9553 H   0  0  0  0  0  0  0  0  0  0  0  0
    1.2988   -0.4612    2.6244 H   0  0  0  0  0  0  0  0  0  0  0  0
    2.7140    0.6078    2.6748 H   0  0  0  0  0  0  0  0  0  0  0  0
    3.9758   -1.2137    3.5592 H   0  0  0  0  0  0  0  0  0  0  0  0
    1.3802   -0.8929    4.9186 H   0  0  0  0  0  0  0  0  0  0  0  0
    2.7821    0.1700    5.0735 H   0  0  0  0  0  0  0  0  0  0  0  0
    4.2543   -0.4372    7.2179 H   0  0  0  0  0  0  0  0  0  0  0  0
    5.1573   -3.9880   10.4974 H   0  0  0  0  0  0  0  0  0  0  0  0
    3.9419   -5.9399    9.5766 H   0  0  0  0  0  0  0  0  0  0  0  0
    2.6909   -5.6940    7.4223 H   0  0  0  0  0  0  0  0  0  0  0  0
    1.6428   -4.8246    5.5824 H   0  0  0  0  0  0  0  0  0  0  0  0
    2.4392   -3.9701    4.2365 H   0  0  0  0  0  0  0  0  0  0  0  0
    0.9495   -3.2982    4.9945 H   0  0  0  0  0  0  0  0  0  0  0  0
    2.4212   -1.5371   -1.4923 H   0  0  0  0  0  0  0  0  0  0  0  0
    3.8685   -0.5730   -1.2267 H   0  0  0  0  0  0  0  0  0  0  0  0
    2.8448    1.4036   -2.3158 H   0  0  0  0  0  0  0  0  0  0  0  0
    1.3505    0.4771   -2.6204 H   0  0  0  0  0  0  0  0  0  0  0  0
    2.9053    1.9127   -4.9600 H   0  0  0  0  0  0  0  0  0  0  0  0
    1.3994    0.9508   -5.1422 H   0  0  0  0  0  0  0  0  0  0  0  0
    2.8153    0.6023   -6.1763 H   0  0  0  0  0  0  0  0  0  0  0  0
  1  2  1  0  0  0  0
  1 23  1  0  0  0  0
  1 24  1  0  0  0  0
  1 25  1  0  0  0  0
  2  3  1  0  0  0  0
  2 17  1  0  0  0  0
  3  4  1  0  0  0  0
  3 26  1  0  0  0  0
  3 27  1  0  0  0  0
  4  5  1  0  0  0  0
  4 28  1  0  0  0  0
  4 29  1  0  0  0  0
  5  6  1  0  0  0  0
  5 30  1  0  0  0  0
  6  7  1  0  0  0  0
  6 31  1  0  0  0  0
  6 32  1  0  0  0  0
  7  8  2  0  0  0  0
  7 15  1  0  0  0  0
  8  9  1  0  0  0  0
  8 33  1  0  0  0  0
  9 10  1  0  0  0  0
  9 14  2  0  0  0  0
 10 11  2  0  0  0  0
 11 12  1  0  0  0  0
 11 34  1  0  0  0  0
 12 13  2  0  0  0  0
 12 35  1  0  0  0  0
 13 14  1  0  0  0  0
 13 36  1  0  0  0  0
 14 15  1  0  0  0  0
 15 16  1  0  0  0  0
 16 37  1  0  0  0  0
 16 38  1  0  0  0  0
 16 39  1  0  0  0  0
 17 18  1  0  0  0  0
 17 40  1  0  0  0  0
 17 41  1  0  0  0  0
 18 19  1  0  0  0  0
 18 42  1  0  0  0  0
 18 43  1  0  0  0  0
 19 20  1  0  0  0  0
 19 21  2  0  0  0  0
 19 22  2  0  0  0  0
 20 44  1  0  0  0  0
 20 45  1  0  0  0  0
 20 46  1  0  0  0  0
M  END
