REMARK  Name = 
REMARK  10 active torsions:
REMARK  status: ('A' for Active; 'I' for Inactive)
REMARK    1  A    between atoms: C_1  and  N_2
REMARK    2  A    between atoms: N_2  and  C_3
REMARK    3  A    between atoms: N_2  and  C_15
REMARK    4  A    between atoms: C_3  and  C_4
REMARK    5  A    between atoms: C_4  and  N_5
REMARK    6  A    between atoms: N_5  and  C_6
REMARK    7  A    between atoms: C_6  and  C_7
REMARK    8  A    between atoms: C_15  and  C_16
REMARK    9  A    between atoms: C_16  and  S_17
REMARK   10  A    between atoms: S_17  and  C_18
REMARK                            x       y       z     vdW  Elec       q    Type
REMARK                         _______ _______ _______ _____ _____    ______ ____
ROOT
ATOM      1  N   UNL     1       2.860   1.118   3.499  0.00  0.00    +0.000 NA
ATOM      2  H   UNL     1       3.878   1.114   3.492  0.00  0.00    +0.000 HD
ENDROOT
BRANCH   1   3
ATOM      3  C   UNL     1       2.376   1.146   2.115  0.00  0.00    +0.000 C 
BRANCH   3   4
ATOM      4  C   UNL     1       2.868  -0.072   1.360  0.00  0.00    +0.000 C 
BRANCH   4   6
ATOM      5  C   UNL     1       0.922  -0.046  -0.026  0.00  0.00    +0.000 C 
ATOM      6  N   UNL     1       2.385  -0.048  -0.025  0.00  0.00    +0.000 NA
BRANCH   6   7
ATOM      7  C   UNL     1       2.877  -1.230  -0.739  0.00  0.00    +0.000 C 
BRANCH   7   8
ATOM      8  C   UNL     1       2.388  -1.222  -2.169  0.00  0.00    +0.000 C 
BRANCH   8   9
ATOM      9  S   UNL     1       2.994  -2.688  -3.075  0.00  0.00    +0.000 S 
ATOM     10  C   UNL     1       2.344  -2.569  -4.780  0.00  0.00    +0.000 C 
ATOM     11  O   UNL     1       4.470  -2.649  -3.118  0.00  0.00    +0.000 OA
ATOM     12  O   UNL     1       2.461  -3.909  -2.439  0.00  0.00    +0.000 OA
ENDBRANCH   8   9
ENDBRANCH   7   8
ENDBRANCH   6   7
ENDBRANCH   4   6
ENDBRANCH   3   4
ENDBRANCH   1   3
BRANCH   1  13
ATOM     13  C   UNL     1       2.397   2.302   4.281  0.00  0.00    +0.000 C 
BRANCH  13  14
ATOM     14  C   UNL     1       3.112   3.820   3.348  0.00  0.00    +0.000 A 
ATOM     15  C   UNL     1       4.826   4.638   2.023  0.00  0.00    +0.000 A 
ATOM     16  C   UNL     1       5.118   7.043   2.079  0.00  0.00    +0.000 A 
ATOM     17 CL   UNL     1       6.061   6.135   2.799  0.00  0.00    +0.000 Cl
ATOM     18  C   UNL     1       3.935   6.233   1.967  0.00  0.00    +0.000 A 
ATOM     19  C   UNL     1       3.548   5.127   3.016  0.00  0.00    +0.000 A 
ATOM     20 BR   UNL     1       3.548   5.127   3.016  0.00  0.00    +0.000 Br
ATOM     21  C   UNL     1       2.673   5.853   3.072  0.00  0.00    +0.000 A 
ENDBRANCH  13  14
ENDBRANCH   1  13
TORSDOF 8
