REMARK  Name = 
REMARK  13 active torsions:
REMARK  status: ('A' for Active; 'I' for Inactive)
REMARK    1  A    between atoms: C_1  and  N_2
REMARK    2  A    between atoms: N_2  and  C_3
REMARK    3  A    between atoms: N_2  and  C_21
REMARK    4  A    between atoms: C_3  and  C_4
REMARK    5  A    between atoms: C_4  and  N_5
REMARK    6  A    between atoms: N_5  and  C_6
REMARK    7  A    between atoms: C_6  and  C_7
REMARK    8  A    between atoms: C_10  and  C_11
REMARK    9  A    between atoms: C_11  and  O_13
REMARK   10  A    between atoms: N_15  and  C_16
REMARK   11  A    between atoms: C_21  and  C_22
REMARK   12  A    between atoms: C_22  and  S_23
REMARK   13  A    between atoms: S_23  and  C_24
REMARK                            x       y       z     vdW  Elec       q    Type
REMARK                         _______ _______ _______ _____ _____    ______ ____
ROOT
ATOM      1  C   UNL     1       2.849  -1.962   5.998  0.00  0.00    +0.000 A 
ATOM      2  N   UNL     1       4.021  -1.563   6.577  0.00  0.00    +0.000 NA
ATOM      3  C   UNL     1       4.521  -2.405   7.516  0.00  0.00    +0.000 A 
ATOM      4  C   UNL     1       5.703  -2.244   8.282  0.00  0.00    +0.000 A 
ATOM      5  C   UNL     1       5.787  -3.359   9.100  0.00  0.00    +0.000 A 
ATOM      6  N   UNL     1       4.711  -4.168   8.846  0.00  0.00    +0.000 N 
ATOM      7  C   UNL     1       4.454  -5.434   9.496  0.00  0.00    +0.000 C 
ATOM      8  C   UNL     1       3.914  -3.602   7.878  0.00  0.00    +0.000 A 
ATOM      9  C   UNL     1       2.724  -4.013   7.275  0.00  0.00    +0.000 A 
ATOM     10  C   UNL     1       2.192  -3.161   6.305  0.00  0.00    +0.000 A 
ATOM     11 BR   UNL     1       0.582  -3.712   5.464  0.00  0.00    +0.000 Br
ENDROOT
BRANCH   4  12
ATOM     12  C   UNL     1       6.651  -1.144   8.239  0.00  0.00    +0.000 C 
ATOM     13  O   UNL     1       7.654  -1.090   8.939  0.00  0.00    +0.000 OA
BRANCH  12  14
ATOM     14  O   UNL     1       6.342  -0.162   7.352  0.00  0.00    +0.000 OA
ATOM     15  H   UNL     1       5.503  -0.364   6.879  0.00  0.00    +0.000 HD
ENDBRANCH  12  14
ENDBRANCH   4  12
BRANCH   1  16
ATOM     16  C   UNL     1       2.325  -1.006   4.942  0.00  0.00    +0.000 C 
BRANCH  16  17
ATOM     17  N   UNL     1       2.853  -1.330   3.612  0.00  0.00    +0.000 NA
ATOM     18  H   UNL     1       3.872  -1.294   3.651  0.00  0.00    +0.000 HD
BRANCH  17  19
ATOM     19  C   UNL     1       2.365  -0.413   2.572  0.00  0.00    +0.000 C 
BRANCH  19  20
ATOM     20  C   UNL     1       2.841   1.052   2.738  0.00  0.00    +0.000 C 
BRANCH  20  22
ATOM     21  C   UNL     1       2.895   1.631   0.380  0.00  0.00    +0.000 C 
ATOM     22  N   UNL     1       2.376   2.001   1.700  0.00  0.00    +0.000 NA
BRANCH  22  23
ATOM     23  C   UNL     1       2.815   3.365   2.092  0.00  0.00    +0.000 C 
BRANCH  23  24
ATOM     24  C   UNL     1       2.235   4.470   1.219  0.00  0.00    +0.000 C 
BRANCH  24  25
ATOM     25  S   UNL     1       2.801   6.064   1.781  0.00  0.00    +0.000 S 
ATOM     26  C   UNL     1       2.093   7.166   0.583  0.00  0.00    +0.000 C 
ATOM     27  O   UNL     1       2.183   6.346   3.062  0.00  0.00    +0.000 OA
ATOM     28  O   UNL     1       4.242   6.113   1.619  0.00  0.00    +0.000 OA
ENDBRANCH  24  25
ENDBRANCH  23  24
ENDBRANCH  22  23
ENDBRANCH  20  22
ENDBRANCH  19  20
ENDBRANCH  17  19
ENDBRANCH  16  17
ENDBRANCH   1  16
TORSDOF 10
