
 OpenBabel01102510233D

 63 65  0  0  0  0  0  0  0  0999 V2000
    7.0295   -2.3484    3.1318 C   0  0  0  0  0  0  0  0  0  0  0  0
    6.3680   -1.5715    2.0744 N   0  0  0  0  0  0  0  0  0  0  0  0
    5.3608   -0.6464    2.6538 C   0  0  0  0  0  0  0  0  0  0  0  0
    4.2305   -1.3528    3.4361 C   0  0  0  0  0  0  0  0  0  0  0  0
    3.3084   -0.3814    4.0419 N   0  0  0  0  0  0  0  0  0  0  0  0
    2.2445   -1.0541    4.8077 C   0  0  0  0  0  0  0  0  0  0  0  0
    2.7264   -1.9472    5.9457 C   0  0  0  0  0  0  0  0  0  0  0  0
    2.4697   -3.2722    5.7488 N   0  0  0  0  0  0  0  0  0  0  0  0
    2.8316   -4.1036    6.7573 C   0  0  0  0  0  0  0  0  0  0  0  0
    2.6796   -5.5153    6.8425 C   0  0  0  0  0  0  0  0  0  0  0  0
    2.1233   -6.4583    5.8738 C   0  0  0  0  0  0  0  0  0  0  0  0
    1.9802   -7.6375    6.1786 O   0  0  0  0  0  0  0  0  0  0  0  0
    1.8647   -5.9019    4.6361 N   0  0  0  0  0  0  0  0  0  0  0  0
    1.3002   -6.5924    3.5593 C   0  0  0  0  0  0  0  0  0  0  0  0
    1.3380   -6.0025    2.3038 C   0  0  0  0  0  0  0  0  0  0  0  0
    0.7988   -6.7009    1.2166 C   0  0  0  0  0  0  0  0  0  0  0  0
    0.9256   -5.8989   -0.5011 Br  0  0  0  0  0  0  0  0  0  0  0  0
    0.2070   -7.9476    1.4041 C   0  0  0  0  0  0  0  0  0  0  0  0
   -0.3700   -8.7254    0.3565 C   0  0  0  0  0  0  0  0  0  0  0  0
   -0.8465   -9.3804   -0.4765 N   0  0  0  0  0  0  0  0  0  0  0  0
    0.1941   -8.4419    2.6935 C   0  0  0  0  0  0  0  0  0  0  0  0
    0.7294   -7.7941    3.7518 N   0  0  0  0  0  0  0  0  0  0  0  0
    3.1753   -5.8810    8.0861 C   0  0  0  0  0  0  0  0  0  0  0  0
    3.6308   -4.7605    8.7239 N   0  0  0  0  0  0  0  0  0  0  0  0
    4.1953   -4.7392   10.0550 C   0  0  0  0  0  0  0  0  0  0  0  0
    3.4526   -3.6600    7.9195 C   0  0  0  0  0  0  0  0  0  0  0  0
    3.7736   -2.3142    8.0901 C   0  0  0  0  0  0  0  0  0  0  0  0
    3.3955   -1.4259    7.0692 C   0  0  0  0  0  0  0  0  0  0  0  0
    3.7819    0.0252    7.2020 C   0  0  0  0  0  0  0  0  0  0  0  0
    3.0668    0.7571    8.6606 Cl  0  0  0  0  0  0  0  0  0  0  0  0
    7.3540   -0.7779    1.2966 C   0  0  0  0  0  0  0  0  0  0  0  0
    8.3432   -1.6444    0.5240 C   0  0  0  0  0  0  0  0  0  0  0  0
    9.4978   -0.6388   -0.3821 S   0  0  0  0  0  0  0  0  0  0  0  0
   10.5699   -1.8564   -1.1067 C   0  0  0  0  0  0  0  0  0  0  0  0
    8.7859    0.0237   -1.4568 O   0  0  0  0  0  0  0  0  0  0  0  0
   10.2818    0.1181    0.5750 O   0  0  0  0  0  0  0  0  0  0  0  0
    6.3232   -3.0109    3.6402 H   0  0  0  0  0  0  0  0  0  0  0  0
    7.5095   -1.7041    3.8765 H   0  0  0  0  0  0  0  0  0  0  0  0
    7.7817   -3.0289    2.7246 H   0  0  0  0  0  0  0  0  0  0  0  0
    4.8921   -0.0795    1.8378 H   0  0  0  0  0  0  0  0  0  0  0  0
    5.8537    0.0849    3.3093 H   0  0  0  0  0  0  0  0  0  0  0  0
    4.6747   -1.9446    4.2390 H   0  0  0  0  0  0  0  0  0  0  0  0
    3.6880   -2.0309    2.7666 H   0  0  0  0  0  0  0  0  0  0  0  0
    2.8688    0.1624    3.2981 H   0  0  0  0  0  0  0  0  0  0  0  0
    1.6280   -1.6474    4.1195 H   0  0  0  0  0  0  0  0  0  0  0  0
    1.5739   -0.2961    5.2300 H   0  0  0  0  0  0  0  0  0  0  0  0
    2.1378   -4.9336    4.5053 H   0  0  0  0  0  0  0  0  0  0  0  0
    1.8057   -5.0342    2.1592 H   0  0  0  0  0  0  0  0  0  0  0  0
   -0.2536   -9.4031    2.9377 H   0  0  0  0  0  0  0  0  0  0  0  0
    3.2297   -6.8603    8.5474 H   0  0  0  0  0  0  0  0  0  0  0  0
    4.1872   -5.7489   10.4734 H   0  0  0  0  0  0  0  0  0  0  0  0
    3.5873   -4.0771   10.6770 H   0  0  0  0  0  0  0  0  0  0  0  0
    5.2226   -4.3725    9.9884 H   0  0  0  0  0  0  0  0  0  0  0  0
    4.2873   -1.9676    8.9820 H   0  0  0  0  0  0  0  0  0  0  0  0
    3.4643    0.6478    6.3671 H   0  0  0  0  0  0  0  0  0  0  0  0
    4.8723    0.1076    7.2781 H   0  0  0  0  0  0  0  0  0  0  0  0
    7.8898   -0.0841    1.9576 H   0  0  0  0  0  0  0  0  0  0  0  0
    6.8125   -0.1592    0.5686 H   0  0  0  0  0  0  0  0  0  0  0  0
    7.8281   -2.2902   -0.1936 H   0  0  0  0  0  0  0  0  0  0  0  0
    8.9552   -2.2585    1.1896 H   0  0  0  0  0  0  0  0  0  0  0  0
    9.9842   -2.4871   -1.7778 H   0  0  0  0  0  0  0  0  0  0  0  0
   11.0144   -2.4532   -0.3074 H   0  0  0  0  0  0  0  0  0  0  0  0
   11.3525   -1.3377   -1.6632 H   0  0  0  0  0  0  0  0  0  0  0  0
  1  2  1  0  0  0  0
  1 37  1  0  0  0  0
  1 38  1  0  0  0  0
  1 39  1  0  0  0  0
  2  3  1  0  0  0  0
  2 31  1  0  0  0  0
  3  4  1  0  0  0  0
  3 40  1  0  0  0  0
  3 41  1  0  0  0  0
  4  5  1  0  0  0  0
  4 42  1  0  0  0  0
  4 43  1  0  0  0  0
  5  6  1  0  0  0  0
  5 44  1  0  0  0  0
  6  7  1  0  0  0  0
  6 45  1  0  0  0  0
  6 46  1  0  0  0  0
  7  8  1  0  0  0  0
  7 28  2  0  0  0  0
  8  9  2  0  0  0  0
  9 10  1  0  0  0  0
  9 26  1  0  0  0  0
 10 11  1  0  0  0  0
 10 23  2  0  0  0  0
 11 12  2  0  0  0  0
 11 13  1  0  0  0  0
 13 14  1  0  0  0  0
 13 47  1  0  0  0  0
 14 15  1  0  0  0  0
 14 22  2  0  0  0  0
 15 16  2  0  0  0  0
 15 48  1  0  0  0  0
 16 17  1  0  0  0  0
 16 18  1  0  0  0  0
 18 19  1  0  0  0  0
 18 21  2  0  0  0  0
 19 20  3  0  0  0  0
 21 22  1  0  0  0  0
 21 49  1  0  0  0  0
 23 24  1  0  0  0  0
 23 50  1  0  0  0  0
 24 25  1  0  0  0  0
 24 26  1  0  0  0  0
 25 51  1  0  0  0  0
 25 52  1  0  0  0  0
 25 53  1  0  0  0  0
 26 27  2  0  0  0  0
 27 28  1  0  0  0  0
 27 54  1  0  0  0  0
 28 29  1  0  0  0  0
 29 30  1  0  0  0  0
 29 55  1  0  0  0  0
 29 56  1  0  0  0  0
 31 32  1  0  0  0  0
 31 57  1  0  0  0  0
 31 58  1  0  0  0  0
 32 33  1  0  0  0  0
 32 59  1  0  0  0  0
 32 60  1  0  0  0  0
 33 34  1  0  0  0  0
 33 35  2  0  0  0  0
 33 36  2  0  0  0  0
 34 61  1  0  0  0  0
 34 62  1  0  0  0  0
 34 63  1  0  0  0  0
M  END
