REMARK  Name = 
REMARK  5 active torsions:
REMARK  status: ('A' for Active; 'I' for Inactive)
REMARK    1  A    between atoms: C_1  and  O_2
REMARK    2  A    between atoms: O_2  and  C_3
REMARK    3  A    between atoms: C_9  and  S_10
REMARK    4  A    between atoms: S_10  and  N_13
REMARK    5  A    between atoms: N_17  and  C_18
REMARK                            x       y       z     vdW  Elec       q    Type
REMARK                         _______ _______ _______ _____ _____    ______ ____
ROOT
ATOM      1  N   UNL     1       3.618   1.277  -1.838  0.00  0.00    +0.000 N 
ATOM      2  C   UNL     1       3.917   1.518  -3.167  0.00  0.00    +0.000 A 
ATOM      3  C   UNL     1       4.809   0.812  -3.990  0.00  0.00    +0.000 A 
ATOM      4  C   UNL     1       4.718   1.434  -5.214  0.00  0.00    +0.000 A 
ATOM      5  N   UNL     1       3.869   2.493  -5.039  0.00  0.00    +0.000 N 
ATOM      6  N   UNL     1       3.271   2.478  -3.825  0.00  0.00    +0.000 NA
ATOM      7  H   UNL     1       2.733   1.708  -1.571  0.00  0.00    +0.000 HD
ENDROOT
BRANCH   5   8
ATOM      8  C   UNL     1       3.502   3.491  -6.025  0.00  0.00    +0.000 C 
ATOM      9  C   UNL     1       2.632   4.649  -5.501  0.00  0.00    +0.000 C 
ATOM     10  C   UNL     1       2.986   5.809  -6.407  0.00  0.00    +0.000 C 
ATOM     11  N   UNL     1       4.357   5.568  -6.730  0.00  0.00    +0.000 N 
ATOM     12  C   UNL     1       4.699   4.235  -6.592  0.00  0.00    +0.000 C 
ATOM     13  O   UNL     1       5.770   3.773  -6.948  0.00  0.00    +0.000 OA
ATOM     14  H   UNL     1       4.986   6.218  -7.190  0.00  0.00    +0.000 HD
ENDBRANCH   5   8
BRANCH   1  15
ATOM     15  S   UNL     1       4.763   1.753  -0.681  0.00  0.00    +0.000 S 
ATOM     16  O   UNL     1       6.065   1.254  -1.080  0.00  0.00    +0.000 OA
ATOM     17  O   UNL     1       4.228   1.446   0.628  0.00  0.00    +0.000 OA
BRANCH  15  24
ATOM     18  C   UNL     1       3.596   4.272  -0.687  0.00  0.00    +0.000 A 
ATOM     19  C   UNL     1       3.664   5.667  -0.768  0.00  0.00    +0.000 A 
ATOM     20  C   UNL     1       4.883   6.293  -1.022  0.00  0.00    +0.000 A 
ATOM     21  F   UNL     1       4.928   7.630  -1.094  0.00  0.00    +0.000 F 
ATOM     22  C   UNL     1       6.048   5.560  -1.202  0.00  0.00    +0.000 A 
ATOM     23  C   UNL     1       6.003   4.171  -1.106  0.00  0.00    +0.000 A 
ATOM     24  C   UNL     1       4.782   3.532  -0.836  0.00  0.00    +0.000 A 
BRANCH  18  26
ATOM     25  C   UNL     1       1.212   4.265  -0.687  0.00  0.00    +0.000 C 
ATOM     26  O   UNL     1       2.438   3.578  -0.456  0.00  0.00    +0.000 OA
ENDBRANCH  18  26
ENDBRANCH  15  24
ENDBRANCH   1  15
TORSDOF 4
