REMARK  Name = 
REMARK  12 active torsions:
REMARK  status: ('A' for Active; 'I' for Inactive)
REMARK    1  A    between atoms: C_1  and  O_2
REMARK    2  A    between atoms: O_2  and  C_3
REMARK    3  A    between atoms: C_5  and  C_6
REMARK    4  A    between atoms: C_6  and  N_7
REMARK    5  A    between atoms: N_7  and  C_8
REMARK    6  A    between atoms: C_8  and  C_9
REMARK    7  A    between atoms: C_9  and  N_10
REMARK    8  A    between atoms: N_10  and  C_11
REMARK    9  A    between atoms: N_10  and  C_12
REMARK   10  A    between atoms: C_12  and  C_13
REMARK   11  A    between atoms: C_13  and  S_14
REMARK   12  A    between atoms: S_14  and  C_15
REMARK                            x       y       z     vdW  Elec       q    Type
REMARK                         _______ _______ _______ _____ _____    ______ ____
ROOT
ATOM      1  N   UNL     1       5.834   1.862   0.491  0.00  0.00    +0.000 NA
ATOM      2  H   UNL     1       5.397   2.575  -0.092  0.00  0.00    +0.000 HD
ENDROOT
BRANCH   1   3
ATOM      3  C   UNL     1       4.817   0.902   0.919  0.00  0.00    +0.000 C 
BRANCH   3   6
ATOM      4  C   UNL     1       2.116  -1.389  -0.192  0.00  0.00    +0.000 A 
ATOM      5  C   UNL     1       3.251  -0.902   0.445  0.00  0.00    +0.000 A 
ATOM      6  C   UNL     1       4.016   0.144  -0.102  0.00  0.00    +0.000 A 
ATOM      7  C   UNL     1       3.767   0.546  -1.413  0.00  0.00    +0.000 A 
ATOM      8  C   UNL     1       2.683  -0.014  -2.104  0.00  0.00    +0.000 A 
ATOM      9  C   UNL     1       1.828  -0.940  -1.481  0.00  0.00    +0.000 A 
ATOM     10 CL   UNL     1       0.450  -1.468  -2.376  0.00  0.00    +0.000 Cl
BRANCH   4  12
ATOM     11  C   UNL     1       0.021  -2.044   0.688  0.00  0.00    +0.000 C 
ATOM     12  O   UNL     1       1.418  -2.287   0.566  0.00  0.00    +0.000 OA
ENDBRANCH   4  12
ENDBRANCH   3   6
ENDBRANCH   1   3
BRANCH   1  13
ATOM     13  C   UNL     1       6.302   2.498   1.745  0.00  0.00    +0.000 C 
BRANCH  13  14
ATOM     14  C   UNL     1       7.422   3.529   1.561  0.00  0.00    +0.000 C 
BRANCH  14  15
ATOM     15  N   UNL     1       7.769   4.228   2.825  0.00  0.00    +0.000 NA
ATOM     16  C   UNL     1       8.234   3.282   3.852  0.00  0.00    +0.000 C 
BRANCH  15  17
ATOM     17  C   UNL     1       8.825   5.240   2.600  0.00  0.00    +0.000 C 
BRANCH  17  18
ATOM     18  C   UNL     1       8.343   6.422   1.770  0.00  0.00    +0.000 C 
BRANCH  18  19
ATOM     19  S   UNL     1       9.668   7.585   1.531  0.00  0.00    +0.000 S 
ATOM     20  C   UNL     1       8.922   8.796   0.469  0.00  0.00    +0.000 C 
ATOM     21  O   UNL     1       9.957   8.221   2.797  0.00  0.00    +0.000 OA
ATOM     22  O   UNL     1      10.712   6.923   0.767  0.00  0.00    +0.000 OA
ENDBRANCH  18  19
ENDBRANCH  17  18
ENDBRANCH  15  17
ENDBRANCH  14  15
ENDBRANCH  13  14
ENDBRANCH   1  13
TORSDOF 9
