REMARK  Name = 
REMARK  11 active torsions:
REMARK  status: ('A' for Active; 'I' for Inactive)
REMARK    1  A    between atoms: C_1  and  N_2
REMARK    2  A    between atoms: N_2  and  C_3
REMARK    3  A    between atoms: N_2  and  C_17
REMARK    4  A    between atoms: C_3  and  C_4
REMARK    5  A    between atoms: C_4  and  N_5
REMARK    6  A    between atoms: N_5  and  C_6
REMARK    7  A    between atoms: C_6  and  C_7
REMARK    8  A    between atoms: N_15  and  C_16
REMARK    9  A    between atoms: C_17  and  C_18
REMARK   10  A    between atoms: C_18  and  S_19
REMARK   11  A    between atoms: S_19  and  C_20
REMARK                            x       y       z     vdW  Elec       q    Type
REMARK                         _______ _______ _______ _____ _____    ______ ____
ROOT
ATOM      1  N   UNL     1       2.958  -1.293   3.569  0.00  0.00    +0.000 NA
ATOM      2  H   UNL     1       3.976  -1.214   3.559  0.00  0.00    +0.000 HD
ENDROOT
BRANCH   1   3
ATOM      3  C   UNL     1       2.388  -0.429   2.525  0.00  0.00    +0.000 C 
BRANCH   3   4
ATOM      4  C   UNL     1       2.787  -0.887   1.101  0.00  0.00    +0.000 C 
BRANCH   4   6
ATOM      5  C   UNL     1       0.773  -0.054   0.018  0.00  0.00    +0.000 C 
ATOM      6  N   UNL     1       2.241  -0.035   0.009  0.00  0.00    +0.000 NA
BRANCH   6   7
ATOM      7  C   UNL     1       2.774  -0.517  -1.292  0.00  0.00    +0.000 C 
BRANCH   7   8
ATOM      8  C   UNL     1       2.429   0.402  -2.462  0.00  0.00    +0.000 C 
BRANCH   8   9
ATOM      9  S   UNL     1       3.090  -0.238  -3.988  0.00  0.00    +0.000 S 
ATOM     10  C   UNL     1       2.490   0.929  -5.187  0.00  0.00    +0.000 C 
ATOM     11  O   UNL     1       4.534  -0.128  -3.948  0.00  0.00    +0.000 OA
ATOM     12  O   UNL     1       2.443  -1.508  -4.261  0.00  0.00    +0.000 OA
ENDBRANCH   8   9
ENDBRANCH   7   8
ENDBRANCH   6   7
ENDBRANCH   4   6
ENDBRANCH   3   4
ENDBRANCH   1   3
BRANCH   1  13
ATOM     13  C   UNL     1       2.476  -0.866   4.880  0.00  0.00    +0.000 C 
BRANCH  13  14
ATOM     14  C   UNL     1       3.013  -1.748   5.957  0.00  0.00    +0.000 A 
ATOM     15  C   UNL     1       3.833  -1.413   7.020  0.00  0.00    +0.000 A 
ATOM     16  C   UNL     1       3.983  -2.555   7.834  0.00  0.00    +0.000 A 
ATOM     17  N   UNL     1       4.669  -2.676   8.997  0.00  0.00    +0.000 NA
ATOM     18  C   UNL     1       4.611  -3.899   9.562  0.00  0.00    +0.000 A 
ATOM     19  C   UNL     1       3.931  -4.993   9.048  0.00  0.00    +0.000 A 
ATOM     20  C   UNL     1       3.234  -4.859   7.849  0.00  0.00    +0.000 A 
ATOM     21  C   UNL     1       3.269  -3.597   7.245  0.00  0.00    +0.000 A 
ATOM     22  N   UNL     1       2.700  -3.090   6.093  0.00  0.00    +0.000 N 
ATOM     23  C   UNL     1       1.881  -3.844   5.167  0.00  0.00    +0.000 C 
ENDBRANCH  13  14
ENDBRANCH   1  13
TORSDOF 8
