
 OpenBabel01102510233D

 43 44  0  0  0  0  0  0  0  0999 V2000
    0.7969   -0.0194    0.0314 C   0  0  0  0  0  0  0  0  0  0  0  0
    2.2654   -0.0117    0.0240 N   0  0  0  0  0  0  0  0  0  0  0  0
    2.8017   -0.8856    1.1035 C   0  0  0  0  0  0  0  0  0  0  0  0
    2.4044   -0.4402    2.5313 C   0  0  0  0  0  0  0  0  0  0  0  0
    2.9366   -1.3347    3.5663 N   0  0  0  0  0  0  0  0  0  0  0  0
    2.4845   -0.8828    4.8896 C   0  0  0  0  0  0  0  0  0  0  0  0
    2.9904   -1.8197    5.9414 C   0  0  0  0  0  0  0  0  0  0  0  0
    4.1730   -1.6032    6.5401 N   0  0  0  0  0  0  0  0  0  0  0  0
    4.2631   -2.5993    7.4380 N   0  0  0  0  0  0  0  0  0  0  0  0
    3.1877   -3.4464    7.4532 C   0  0  0  0  0  0  0  0  0  0  0  0
    2.8976   -4.5676    8.2375 C   0  0  0  0  0  0  0  0  0  0  0  0
    1.6881   -5.2251    7.9850 C   0  0  0  0  0  0  0  0  0  0  0  0
    0.8228   -4.7729    6.9885 C   0  0  0  0  0  0  0  0  0  0  0  0
   -0.7988   -5.6980    6.6744 Br  0  0  0  0  0  0  0  0  0  0  0  0
    1.1265   -3.6471    6.2159 C   0  0  0  0  0  0  0  0  0  0  0  0
    2.3361   -2.9712    6.4629 C   0  0  0  0  0  0  0  0  0  0  0  0
    2.7955   -0.4756   -1.2847 C   0  0  0  0  0  0  0  0  0  0  0  0
    2.4407    0.4569   -2.4405 C   0  0  0  0  0  0  0  0  0  0  0  0
    3.0961   -0.1523   -3.9800 S   0  0  0  0  0  0  0  0  0  0  0  0
    2.4819    1.0345   -5.1516 C   0  0  0  0  0  0  0  0  0  0  0  0
    4.5407   -0.0321   -3.9464 O   0  0  0  0  0  0  0  0  0  0  0  0
    2.4572   -1.4203   -4.2733 O   0  0  0  0  0  0  0  0  0  0  0  0
    0.3998    0.3937    0.9629 H   0  0  0  0  0  0  0  0  0  0  0  0
    0.3896   -1.0263   -0.1102 H   0  0  0  0  0  0  0  0  0  0  0  0
    0.3873    0.6336   -0.7441 H   0  0  0  0  0  0  0  0  0  0  0  0
    3.8988   -0.8739    1.0497 H   0  0  0  0  0  0  0  0  0  0  0  0
    2.4834   -1.9243    0.9419 H   0  0  0  0  0  0  0  0  0  0  0  0
    1.3141   -0.4464    2.6246 H   0  0  0  0  0  0  0  0  0  0  0  0
    2.7550    0.5854    2.6992 H   0  0  0  0  0  0  0  0  0  0  0  0
    3.9578   -1.3046    3.5646 H   0  0  0  0  0  0  0  0  0  0  0  0
    1.3887   -0.8582    4.9303 H   0  0  0  0  0  0  0  0  0  0  0  0
    2.8459    0.1326    5.0943 H   0  0  0  0  0  0  0  0  0  0  0  0
    5.0890   -2.6424    8.0233 H   0  0  0  0  0  0  0  0  0  0  0  0
    3.5744   -4.9181    9.0098 H   0  0  0  0  0  0  0  0  0  0  0  0
    1.4303   -6.1007    8.5769 H   0  0  0  0  0  0  0  0  0  0  0  0
    0.4527   -3.3008    5.4386 H   0  0  0  0  0  0  0  0  0  0  0  0
    2.4461   -1.4945   -1.4968 H   0  0  0  0  0  0  0  0  0  0  0  0
    3.8906   -0.5277   -1.2236 H   0  0  0  0  0  0  0  0  0  0  0  0
    2.8481    1.4598   -2.2798 H   0  0  0  0  0  0  0  0  0  0  0  0
    1.3604    0.5258   -2.5933 H   0  0  0  0  0  0  0  0  0  0  0  0
    2.8818    2.0186   -4.9008 H   0  0  0  0  0  0  0  0  0  0  0  0
    1.3907    1.0393   -5.1087 H   0  0  0  0  0  0  0  0  0  0  0  0
    2.8134    0.7366   -6.1482 H   0  0  0  0  0  0  0  0  0  0  0  0
  1  2  1  0  0  0  0
  1 23  1  0  0  0  0
  1 24  1  0  0  0  0
  1 25  1  0  0  0  0
  2  3  1  0  0  0  0
  2 17  1  0  0  0  0
  3  4  1  0  0  0  0
  3 26  1  0  0  0  0
  3 27  1  0  0  0  0
  4  5  1  0  0  0  0
  4 28  1  0  0  0  0
  4 29  1  0  0  0  0
  5  6  1  0  0  0  0
  5 30  1  0  0  0  0
  6  7  1  0  0  0  0
  6 31  1  0  0  0  0
  6 32  1  0  0  0  0
  7  8  2  0  0  0  0
  7 16  1  0  0  0  0
  8  9  1  0  0  0  0
  9 10  1  0  0  0  0
  9 33  1  0  0  0  0
 10 11  1  0  0  0  0
 10 16  2  0  0  0  0
 11 12  2  0  0  0  0
 11 34  1  0  0  0  0
 12 13  1  0  0  0  0
 12 35  1  0  0  0  0
 13 14  1  0  0  0  0
 13 15  2  0  0  0  0
 15 16  1  0  0  0  0
 15 36  1  0  0  0  0
 17 18  1  0  0  0  0
 17 37  1  0  0  0  0
 17 38  1  0  0  0  0
 18 19  1  0  0  0  0
 18 39  1  0  0  0  0
 18 40  1  0  0  0  0
 19 20  1  0  0  0  0
 19 21  2  0  0  0  0
 19 22  2  0  0  0  0
 20 41  1  0  0  0  0
 20 42  1  0  0  0  0
 20 43  1  0  0  0  0
M  END
